(PID.TID 0000.0001) 
(PID.TID 0000.0001) // ======================================================
(PID.TID 0000.0001) //                      MITgcm UV
(PID.TID 0000.0001) //                      =========
(PID.TID 0000.0001) // ======================================================
(PID.TID 0000.0001) // execution environment starting up...
(PID.TID 0000.0001) 
(PID.TID 0000.0001) // MITgcmUV version:  checkpoint68o
(PID.TID 0000.0001) // Build user:        jahn
(PID.TID 0000.0001) // Build host:        node753
(PID.TID 0000.0001) // Build date:        Mon Apr  3 13:18:55 EDT 2023
(PID.TID 0000.0001) 
(PID.TID 0000.0001) // =======================================================
(PID.TID 0000.0001) // Execution Environment parameter file "eedata"
(PID.TID 0000.0001) // =======================================================
(PID.TID 0000.0001) ># Example "eedata" file
(PID.TID 0000.0001) ># Lines beginning "#" are comments
(PID.TID 0000.0001) ># nTx - No. threads per process in X
(PID.TID 0000.0001) ># nTy - No. threads per process in Y
(PID.TID 0000.0001) > &EEPARMS
(PID.TID 0000.0001) > nTx=1,nTy=1
(PID.TID 0000.0001) > /
(PID.TID 0000.0001) ># Note: Some systems use & as the
(PID.TID 0000.0001) ># namelist terminator. Other systems
(PID.TID 0000.0001) ># use a / character (as shown here).
(PID.TID 0000.0001) 
(PID.TID 0000.0001) // =======================================================
(PID.TID 0000.0001) // Computational Grid Specification ( see files "SIZE.h" )
(PID.TID 0000.0001) //                                  ( and "eedata"       )
(PID.TID 0000.0001) // =======================================================
(PID.TID 0000.0001)      nPx =   18 ; /* No. processes in X */
(PID.TID 0000.0001)      nPy =    8 ; /* No. processes in Y */
(PID.TID 0000.0001)      nSx =    1 ; /* No. tiles in X per process */
(PID.TID 0000.0001)      nSy =    1 ; /* No. tiles in Y per process */
(PID.TID 0000.0001)      sNx =   20 ; /* Tile size in X */
(PID.TID 0000.0001)      sNy =   20 ; /* Tile size in Y */
(PID.TID 0000.0001)      OLx =    4 ; /* Tile overlap distance in X */
(PID.TID 0000.0001)      OLy =    4 ; /* Tile overlap distance in Y */
(PID.TID 0000.0001)      nTx =    1 ; /* No. threads in X per process */
(PID.TID 0000.0001)      nTy =    1 ; /* No. threads in Y per process */
(PID.TID 0000.0001)       Nr =   23 ; /* No. levels in the vertical   */
(PID.TID 0000.0001)       Nx =  360 ; /* Total domain size in X ( = nPx*nSx*sNx ) */
(PID.TID 0000.0001)       Ny =  160 ; /* Total domain size in Y ( = nPy*nSy*sNy ) */
(PID.TID 0000.0001)   nTiles =    1 ; /* Total no. tiles per process ( = nSx*nSy ) */
(PID.TID 0000.0001)   nProcs =  144 ; /* Total no. processes ( = nPx*nPy ) */
(PID.TID 0000.0001) nThreads =    1 ; /* Total no. threads per process ( = nTx*nTy ) */
(PID.TID 0000.0001) usingMPI =    T ; /* Flag used to control whether MPI is in use */
(PID.TID 0000.0001)                   /*  note: To execute a program with MPI calls */
(PID.TID 0000.0001)                   /*  it must be launched appropriately e.g     */
(PID.TID 0000.0001)                   /*  "mpirun -np 64 ......"                    */
(PID.TID 0000.0001) useCoupler=   F ; /* Flag used to control communications with   */
(PID.TID 0000.0001)                   /*  other model components, through a coupler */
(PID.TID 0000.0001) useNest2W_parent =    F ;/* Control 2-W Nesting comm */
(PID.TID 0000.0001) useNest2W_child  =    F ;/* Control 2-W Nesting comm */
(PID.TID 0000.0001) debugMode =    F ; /* print debug msg. (sequence of S/R calls)  */
(PID.TID 0000.0001) printMapIncludesZeros=    F ; /* print zeros in Std.Output maps */
(PID.TID 0000.0001) maxLengthPrt1D=   65 /* maxLength of 1D array printed to StdOut */
(PID.TID 0000.0001) 
(PID.TID 0000.0001) ======= Starting MPI parallel Run =========
(PID.TID 0000.0001)  My Processor Name (len:  7 ) = node753
(PID.TID 0000.0001)  Located at (  0,  0) on processor grid (0: 17,0:  7)
(PID.TID 0000.0001)  Origin at  (     1,     1) on global grid (1:   360,1:   160)
(PID.TID 0000.0001)  North neighbor = processor 0001
(PID.TID 0000.0001)  South neighbor = processor 0007
(PID.TID 0000.0001)   East neighbor = processor 0008
(PID.TID 0000.0001)   West neighbor = processor 0136
(PID.TID 0000.0001) // ======================================================
(PID.TID 0000.0001) // Mapping of tiles to threads
(PID.TID 0000.0001) // ======================================================
(PID.TID 0000.0001) // -o- Thread   1, tiles (   1:   1,   1:   1)
(PID.TID 0000.0001) 
(PID.TID 0000.0001) // ======================================================
(PID.TID 0000.0001) // Tile <-> Tile connectvity table
(PID.TID 0000.0001) // ======================================================
(PID.TID 0000.0001) // Tile number: 000001 (process no. = 000000)
(PID.TID 0000.0001) //        WEST: Tile = 000018, Process = 000136, Comm = messages
(PID.TID 0000.0001) //                bi = 000001, bj = 000001
(PID.TID 0000.0001) //        EAST: Tile = 000002, Process = 000008, Comm = messages
(PID.TID 0000.0001) //                bi = 000001, bj = 000001
(PID.TID 0000.0001) //       SOUTH: Tile = 000127, Process = 000007, Comm = messages
(PID.TID 0000.0001) //                bi = 000001, bj = 000001
(PID.TID 0000.0001) //       NORTH: Tile = 000019, Process = 000001, Comm = messages
(PID.TID 0000.0001) //                bi = 000001, bj = 000001
(PID.TID 0000.0001) 
(PID.TID 0000.0001)  INI_PARMS: opening model parameter file "data"
(PID.TID 0000.0001)  OPEN_COPY_DATA_FILE: opening file data
(PID.TID 0000.0001) // =======================================================
(PID.TID 0000.0001) // Parameter file "data"
(PID.TID 0000.0001) // =======================================================
(PID.TID 0000.0001) >#
(PID.TID 0000.0001) ># ******************************
(PID.TID 0000.0001) ># Model parameters
(PID.TID 0000.0001) ># Continuous equation parameters
(PID.TID 0000.0001) ># ******************************
(PID.TID 0000.0001) >&PARM01
(PID.TID 0000.0001) >tRef= 24.0 , 23.0 , 22.0 , 21.0 , 20.0 ,
(PID.TID 0000.0001) >      19.0 , 18.0 , 17.0 , 16.0 , 15.0 ,
(PID.TID 0000.0001) >      14.0 , 13.0 , 12.0 , 11.0 , 10.0 ,
(PID.TID 0000.0001) >       9.0 ,  8.0 ,  7.0 ,  6.0,   5.0 ,
(PID.TID 0000.0001) >       4.0 ,  3.0 ,  2.0 ,
(PID.TID 0000.0001) >sRef= 34.65, 34.75, 34.82, 34.87, 34.90,
(PID.TID 0000.0001) >      34.90, 34.86, 34.78, 34.69, 34.60,
(PID.TID 0000.0001) >      34.58, 34.62, 34.68, 34.72, 34.73,
(PID.TID 0000.0001) >      34.74, 34.73, 34.73, 34.72, 34.72,
(PID.TID 0000.0001) >      34.71, 34.70, 34.69,
(PID.TID 0000.0001) >no_slip_sides=.false.,
(PID.TID 0000.0001) >no_slip_bottom=.TRUE.,
(PID.TID 0000.0001) >viscAz=1.E-3,
(PID.TID 0000.0001) >viscAh=1.E4,
(PID.TID 0000.0001) >diffKhT=1.E2,
(PID.TID 0000.0001) >diffKzT=1.E-5,
(PID.TID 0000.0001) >diffKhS=1.E2,
(PID.TID 0000.0001) >diffKzS=1.E-5,
(PID.TID 0000.0001) >beta=1.E-11,
(PID.TID 0000.0001) >tAlpha=2.E-4,
(PID.TID 0000.0001) >sBeta =7.4E-4,
(PID.TID 0000.0001) >gravity=9.81,
(PID.TID 0000.0001) >gBaro=9.81,
(PID.TID 0000.0001) >rigidLid=.FALSE.,
(PID.TID 0000.0001) >implicitFreeSurface=.true.,
(PID.TID 0000.0001) >eosType='POLY3',
(PID.TID 0000.0001) >saltStepping=.TRUE.,
(PID.TID 0000.0001) >tempStepping=.TRUE.,
(PID.TID 0000.0001) >momStepping=.TRUE.,
(PID.TID 0000.0001) >implicitDiffusion=.true.,
(PID.TID 0000.0001) >implicitViscosity=.true.,
(PID.TID 0000.0001) >allowFreezing=.false.,
(PID.TID 0000.0001) >useSingleCpuIO=.TRUE.,
(PID.TID 0000.0001) >useCDscheme=.FALSE.,
(PID.TID 0000.0001) >tempAdvScheme = 3,
(PID.TID 0000.0001) >saltAdvScheme = 3,
(PID.TID 0000.0001) >readBinaryPrec= 32,
(PID.TID 0000.0001) >writeBinaryPrec= 32,
(PID.TID 0000.0001) >/
(PID.TID 0000.0001) >
(PID.TID 0000.0001) ># **************************
(PID.TID 0000.0001) ># Elliptic solver parameters
(PID.TID 0000.0001) ># **************************
(PID.TID 0000.0001) >&PARM02
(PID.TID 0000.0001) >cg2dMaxIters=300,
(PID.TID 0000.0001) >cg2dTargetResidual=1.E-7,
(PID.TID 0000.0001) >/
(PID.TID 0000.0001) >
(PID.TID 0000.0001) ># ************************
(PID.TID 0000.0001) ># Time stepping parameters
(PID.TID 0000.0001) ># ************************
(PID.TID 0000.0001) >&PARM03
(PID.TID 0000.0001) > nIter0=0,
(PID.TID 0000.0001) > pickupSuff='darwin',
(PID.TID 0000.0001) ># nEndIter=25920,
(PID.TID 0000.0001) > nTimeSteps=4,
(PID.TID 0000.0001) > deltaTmom=3600.,
(PID.TID 0000.0001) > deltaTtracer=3600.,
(PID.TID 0000.0001) > deltaTClock =3600.,
(PID.TID 0000.0001) > abEps=0.1,
(PID.TID 0000.0001) > pChkptFreq  = 31104000.,
(PID.TID 0000.0001) > chkptFreq   = 31104000.,
(PID.TID 0000.0001) ># dumpFreq    = 31104000.,
(PID.TID 0000.0001) > dumpInitAndLast=.FALSE.,
(PID.TID 0000.0001) ># taveFreq    = 31104000.,
(PID.TID 0000.0001) >#taveFreq    = 2592000.,
(PID.TID 0000.0001) ># monitorFreq = 2592000.,
(PID.TID 0000.0001) >#monitorFreq = 86400.,
(PID.TID 0000.0001) ># monitorFreq = 31104000.,
(PID.TID 0000.0001) > monitorFreq = 1.,
(PID.TID 0000.0001) > tauThetaClimRelax=0.,
(PID.TID 0000.0001) > tauSaltClimRelax=0.,
(PID.TID 0000.0001) > periodicExternalForcing=.TRUE.,
(PID.TID 0000.0001) > externForcingPeriod=2592000.,
(PID.TID 0000.0001) > externForcingCycle=31104000.,
(PID.TID 0000.0001) >/
(PID.TID 0000.0001) >
(PID.TID 0000.0001) ># *******************
(PID.TID 0000.0001) ># Gridding parameters
(PID.TID 0000.0001) ># *******************
(PID.TID 0000.0001) >&PARM04
(PID.TID 0000.0001) >usingCartesianGrid=.FALSE.,
(PID.TID 0000.0001) >usingSphericalPolarGrid=.TRUE.,
(PID.TID 0000.0001) >delX=360*1.E0,
(PID.TID 0000.0001) >delY=160*1.E0,
(PID.TID 0000.0001) >delZ=10.,10.,15.,20.,20.,25.,35.,50.,75.,
(PID.TID 0000.0001) >100.,150.,200.,275.,350.,415.,450.,500.,
(PID.TID 0000.0001) >500.,500.,500.,500.,500.,500.,
(PID.TID 0000.0001) >xgOrigin=0,
(PID.TID 0000.0001) >ygOrigin=-80.,
(PID.TID 0000.0001) >/
(PID.TID 0000.0001) >
(PID.TID 0000.0001) ># **********
(PID.TID 0000.0001) ># Data Files
(PID.TID 0000.0001) ># **********
(PID.TID 0000.0001) >&PARM05
(PID.TID 0000.0001) >bathyFile=       'input_ecco/bathy_fl.bin',
(PID.TID 0000.0001) >zonalWindFile=   '',
(PID.TID 0000.0001) >meridWindFile=   '',
(PID.TID 0000.0001) >thetaClimFile=   '',
(PID.TID 0000.0001) >saltClimFile=    '',
(PID.TID 0000.0001) >surfQFile=       '',
(PID.TID 0000.0001) >EmPmRFile=       '',
(PID.TID 0000.0001) >/
(PID.TID 0000.0001) 
(PID.TID 0000.0001)  INI_PARMS ; starts to read PARM01
(PID.TID 0000.0001)  INI_PARMS ; read PARM01 : OK
(PID.TID 0000.0001)  INI_PARMS ; starts to read PARM02
(PID.TID 0000.0001)  INI_PARMS ; read PARM02 : OK
(PID.TID 0000.0001)  INI_PARMS ; starts to read PARM03
(PID.TID 0000.0001)  INI_PARMS ; read PARM03 : OK
(PID.TID 0000.0001)  INI_PARMS ; starts to read PARM04
(PID.TID 0000.0001)  INI_PARMS ; read PARM04 : OK
(PID.TID 0000.0001)  INI_PARMS ; starts to read PARM05
(PID.TID 0000.0001)  INI_PARMS ; read PARM05 : OK
(PID.TID 0000.0001)  INI_PARMS: finished reading file "data"
(PID.TID 0000.0001)  PACKAGES_BOOT: opening data.pkg
(PID.TID 0000.0001)  OPEN_COPY_DATA_FILE: opening file data.pkg
(PID.TID 0000.0001) // =======================================================
(PID.TID 0000.0001) // Parameter file "data.pkg"
(PID.TID 0000.0001) // =======================================================
(PID.TID 0000.0001) ># Packages
(PID.TID 0000.0001) > &PACKAGES
(PID.TID 0000.0001) > useGMRedi=.TRUE.
(PID.TID 0000.0001) > usePTRACERS=.TRUE.
(PID.TID 0000.0001) > useGCHEM=.TRUE.,
(PID.TID 0000.0001) > useRADTRANS=.TRUE.
(PID.TID 0000.0001) > useKPP=.TRUE.,
(PID.TID 0000.0001) > useMNC=.TRUE.,
(PID.TID 0000.0001) > useEXF=.TRUE.,
(PID.TID 0000.0001) > useCAL=.TRUE.,
(PID.TID 0000.0001) > useOFFLINE=.TRUE.,
(PID.TID 0000.0001) > useDIAGNOSTICS=.TRUE.,
(PID.TID 0000.0001) > /
(PID.TID 0000.0001) 
(PID.TID 0000.0001)  PACKAGES_BOOT: finished reading data.pkg
(PID.TID 0000.0001)  PACKAGES_BOOT: On/Off package Summary
 --------  pkgs with a standard "usePKG" On/Off switch in "data.pkg":  --------
 pkg/kpp                  compiled   and   used ( useKPP                   = T )
 pkg/gmredi               compiled   and   used ( useGMRedi                = T )
 pkg/cal                  compiled   and   used ( useCAL                   = T )
 pkg/exf                  compiled   and   used ( useEXF                   = T )
 pkg/sbo                  compiled but not used ( useSBO                   = F )
 pkg/radtrans             compiled   and   used ( useRADTRANS              = T )
 pkg/ptracers             compiled   and   used ( usePTRACERS              = T )
 pkg/gchem                compiled   and   used ( useGCHEM                 = T )
 pkg/offline              compiled   and   used ( useOffLine               = T )
 pkg/diagnostics          compiled   and   used ( useDiagnostics           = T )
 pkg/mnc                  compiled   and   used ( useMNC                   = T )
 -------- pkgs without standard "usePKG" On/Off switch in "data.pkg":  --------
 pkg/generic_advdiff      compiled   and   used ( useGAD                   = T )
 pkg/mom_common           compiled   and   used ( momStepping              = T )
 pkg/mom_vecinv           compiled but not used ( +vectorInvariantMomentum = F )
 pkg/mom_fluxform         compiled   and   used ( & not vectorInvariantMom = T )
 pkg/monitor              compiled   and   used ( monitorFreq > 0.         = T )
 pkg/timeave              compiled but not used ( taveFreq > 0.            = F )
 pkg/rw                   compiled   and   used
 pkg/mdsio                compiled   and   used
(PID.TID 0000.0001)  PACKAGES_BOOT: End of package Summary
(PID.TID 0000.0001) 
(PID.TID 0000.0001)  MNC_READPARMS: opening file 'data.mnc'
(PID.TID 0000.0001)  OPEN_COPY_DATA_FILE: opening file data.mnc
(PID.TID 0000.0001) // =======================================================
(PID.TID 0000.0001) // Parameter file "data.mnc"
(PID.TID 0000.0001) // =======================================================
(PID.TID 0000.0001) ># Example "data.mnc" file
(PID.TID 0000.0001) ># Lines beginning "#" are comments
(PID.TID 0000.0001) > &MNC_01
(PID.TID 0000.0001) ># mnc_echo_gvtypes=.FALSE.,
(PID.TID 0000.0001) ># mnc_use_indir=.FALSE.,
(PID.TID 0000.0001) > mnc_use_outdir=.TRUE.,
(PID.TID 0000.0001) > mnc_outdir_str='mnc_test_',
(PID.TID 0000.0001) ># mnc_outdir_date=.TRUE.,
(PID.TID 0000.0001) > monitor_mnc=.FALSE.,
(PID.TID 0000.0001) > snapshot_mnc=.TRUE.,
(PID.TID 0000.0001) > timeave_mnc=.TRUE.,
(PID.TID 0000.0001) > pickup_read_mnc=.FALSE.,
(PID.TID 0000.0001) > pickup_write_mnc=.FALSE.,
(PID.TID 0000.0001) > mnc_filefreq = 2592000.
(PID.TID 0000.0001) > mnc_max_fsize=1E12,
(PID.TID 0000.0001) > &
(PID.TID 0000.0001) ># Note: Some systems use & as the
(PID.TID 0000.0001) ># namelist terminator. Other systems
(PID.TID 0000.0001) ># use a / character.
(PID.TID 0000.0001) 
(PID.TID 0000.0001)  MNC_READPARMS: finished reading data.mnc
(PID.TID 0000.0001) CAL_READPARMS: opening data.cal
(PID.TID 0000.0001)  OPEN_COPY_DATA_FILE: opening file data.cal
(PID.TID 0000.0001) // =======================================================
(PID.TID 0000.0001) // Parameter file "data.cal"
(PID.TID 0000.0001) // =======================================================
(PID.TID 0000.0001) ># *******************
(PID.TID 0000.0001) ># Calendar Parameters
(PID.TID 0000.0001) ># *******************
(PID.TID 0000.0001) > &CAL_NML
(PID.TID 0000.0001) > TheCalendar='model',
(PID.TID 0000.0001) > startDate_1=20000101,
(PID.TID 0000.0001) > startDate_2=000000,
(PID.TID 0000.0001) > calendarDumps = .TRUE.
(PID.TID 0000.0001) > &
(PID.TID 0000.0001) 
(PID.TID 0000.0001) CAL_READPARMS: finished reading data.cal
(PID.TID 0000.0001) EXF_READPARMS: opening data.exf
(PID.TID 0000.0001)  OPEN_COPY_DATA_FILE: opening file data.exf
(PID.TID 0000.0001) // =======================================================
(PID.TID 0000.0001) // Parameter file "data.exf"
(PID.TID 0000.0001) // =======================================================
(PID.TID 0000.0001) ># *********************
(PID.TID 0000.0001) ># External Forcing Data
(PID.TID 0000.0001) ># *********************
(PID.TID 0000.0001) >#
(PID.TID 0000.0001) > &EXF_NML_01
(PID.TID 0000.0001) > exf_iprec         = 32,
(PID.TID 0000.0001) > exf_yftype        = 'RL',
(PID.TID 0000.0001) ># useExfYearlyFields= .TRUE.,
(PID.TID 0000.0001) ># twoDigitYear      = .TRUE.,
(PID.TID 0000.0001) > useExfCheckRange  = .FALSE.,
(PID.TID 0000.0001) > repeatPeriod = 31104000.,
(PID.TID 0000.0001) > &
(PID.TID 0000.0001) >#
(PID.TID 0000.0001) > &EXF_NML_02
(PID.TID 0000.0001) > &
(PID.TID 0000.0001) >#
(PID.TID 0000.0001) > &EXF_NML_03
(PID.TID 0000.0001) > &
(PID.TID 0000.0001) >#
(PID.TID 0000.0001) > &EXF_NML_04
(PID.TID 0000.0001) > &
(PID.TID 0000.0001) 
(PID.TID 0000.0001) EXF_READPARMS: reading EXF_NML_01
(PID.TID 0000.0001) EXF_READPARMS: reading EXF_NML_02
(PID.TID 0000.0001) EXF_READPARMS: reading EXF_NML_03
(PID.TID 0000.0001) EXF_READPARMS: finished reading data.exf
(PID.TID 0000.0001)  KPP_READPARMS: opening data.kpp
(PID.TID 0000.0001)  OPEN_COPY_DATA_FILE: opening file data.kpp
(PID.TID 0000.0001) // =======================================================
(PID.TID 0000.0001) // Parameter file "data.kpp"
(PID.TID 0000.0001) // =======================================================
(PID.TID 0000.0001) >#
(PID.TID 0000.0001) ># ***************
(PID.TID 0000.0001) ># Open boundaries
(PID.TID 0000.0001) ># ***************
(PID.TID 0000.0001) > &KPP_PARM01
(PID.TID 0000.0001) ># KPPwriteState   = .TRUE.,
(PID.TID 0000.0001) > &
(PID.TID 0000.0001) 
(PID.TID 0000.0001)  KPP_READPARMS ; starts to read KPP_PARM01
(PID.TID 0000.0001)  KPP_READPARMS ; read KPP_PARM01 : OK
(PID.TID 0000.0001)  KPP_READPARMS: finished reading data.kpp
(PID.TID 0000.0001)  GM_READPARMS: opening data.gmredi
(PID.TID 0000.0001)  OPEN_COPY_DATA_FILE: opening file data.gmredi
(PID.TID 0000.0001) // =======================================================
(PID.TID 0000.0001) // Parameter file "data.gmredi"
(PID.TID 0000.0001) // =======================================================
(PID.TID 0000.0001) ># GM+Redi package parameters:
(PID.TID 0000.0001) >#     GM_Small_Number  :: epsilon used in computing the slope
(PID.TID 0000.0001) >#     GM_slopeSqCutoff :: slope^2 cut-off value
(PID.TID 0000.0001) >
(PID.TID 0000.0001) >#-from MOM :
(PID.TID 0000.0001) ># GM_background_K:      G & Mc.W  diffusion coefficient
(PID.TID 0000.0001) ># GM_maxSlope    :      max slope of isopycnals
(PID.TID 0000.0001) ># GM_Scrit       :      transition for scaling diffusion coefficient
(PID.TID 0000.0001) ># GM_Sd          :      half width scaling for diffusion coefficient
(PID.TID 0000.0001) ># GM_taper_scheme:      slope clipping or one of the tapering schemes
(PID.TID 0000.0001) ># GM_Kmin_horiz  :      horizontal diffusion minimum value
(PID.TID 0000.0001) >
(PID.TID 0000.0001) >#-Option parameters (needs to "define" options in GMREDI_OPTIONS.h")
(PID.TID 0000.0001) ># GM_isopycK     :      isopycnal diffusion coefficient
(PID.TID 0000.0001) >(default=GM_background_K)
(PID.TID 0000.0001) ># GM_AdvForm     :      turn on GM Advective form       (default=Skew flux
(PID.TID 0000.0001) >form)
(PID.TID 0000.0001) >
(PID.TID 0000.0001) > &GM_PARM01
(PID.TID 0000.0001) >  GM_Small_Number    = 1.D-20,
(PID.TID 0000.0001) >  GM_slopeSqCutoff   = 1.D+08,
(PID.TID 0000.0001) >  GM_AdvForm         = .FALSE.,
(PID.TID 0000.0001) >  GM_isopycK         = 1.D+3,
(PID.TID 0000.0001) >  GM_background_K    = 1.D+3,
(PID.TID 0000.0001) >  GM_maxSlope        = 1.D-2,
(PID.TID 0000.0001) >  GM_taper_scheme    = 'dm95',
(PID.TID 0000.0001) >  GM_Kmin_horiz      = 50.,
(PID.TID 0000.0001) >  GM_Scrit           = 4.D-3,
(PID.TID 0000.0001) >  GM_Sd              = 1.D-3,
(PID.TID 0000.0001) >#
(PID.TID 0000.0001) >###  GM_Visbeck_alpha   = 1.5D-2,
(PID.TID 0000.0001) >###  GM_Visbeck_alpha   = 0.D0,
(PID.TID 0000.0001) >###  GM_Visbeck_length  = 2.D+5,
(PID.TID 0000.0001) >###  GM_Visbeck_depth   = 1.D+3,
(PID.TID 0000.0001) >###  GM_Visbeck_maxval_K= 2.5D+3,
(PID.TID 0000.0001) > &
(PID.TID 0000.0001) >
(PID.TID 0000.0001) 
(PID.TID 0000.0001)  GM_READPARMS: finished reading data.gmredi
(PID.TID 0000.0001)  RADTRANS_READPARMS: opening data.radtrans
(PID.TID 0000.0001)  OPEN_COPY_DATA_FILE: opening file data.radtrans
(PID.TID 0000.0001) // =======================================================
(PID.TID 0000.0001) // Parameter file "data.radtrans"
(PID.TID 0000.0001) // =======================================================
(PID.TID 0000.0001) > &RADTRANS_FORCING_PARAMS
(PID.TID 0000.0001) > RT_EdFile( 1)='input_ecco/ecco_oasim_edp01_below.bin',
(PID.TID 0000.0001) > RT_EdFile( 2)='input_ecco/ecco_oasim_edp02_below.bin',
(PID.TID 0000.0001) > RT_EdFile( 3)='input_ecco/ecco_oasim_edp03_below.bin',
(PID.TID 0000.0001) > RT_EdFile( 4)='input_ecco/ecco_oasim_edp04_below.bin',
(PID.TID 0000.0001) > RT_EdFile( 5)='input_ecco/ecco_oasim_edp05_below.bin',
(PID.TID 0000.0001) > RT_EdFile( 6)='input_ecco/ecco_oasim_edp06_below.bin',
(PID.TID 0000.0001) > RT_EdFile( 7)='input_ecco/ecco_oasim_edp07_below.bin',
(PID.TID 0000.0001) > RT_EdFile( 8)='input_ecco/ecco_oasim_edp08_below.bin',
(PID.TID 0000.0001) > RT_EdFile( 9)='input_ecco/ecco_oasim_edp09_below.bin',
(PID.TID 0000.0001) > RT_EdFile(10)='input_ecco/ecco_oasim_edp10_below.bin',
(PID.TID 0000.0001) > RT_EdFile(11)='input_ecco/ecco_oasim_edp11_below.bin',
(PID.TID 0000.0001) > RT_EdFile(12)='input_ecco/ecco_oasim_edp12_below.bin',
(PID.TID 0000.0001) > RT_EdFile(13)='input_ecco/ecco_oasim_edp13_below.bin',
(PID.TID 0000.0001) > RT_EsFile( 1)='input_ecco/ecco_oasim_esp01_below.bin',
(PID.TID 0000.0001) > RT_EsFile( 2)='input_ecco/ecco_oasim_esp02_below.bin',
(PID.TID 0000.0001) > RT_EsFile( 3)='input_ecco/ecco_oasim_esp03_below.bin',
(PID.TID 0000.0001) > RT_EsFile( 4)='input_ecco/ecco_oasim_esp04_below.bin',
(PID.TID 0000.0001) > RT_EsFile( 5)='input_ecco/ecco_oasim_esp05_below.bin',
(PID.TID 0000.0001) > RT_EsFile( 6)='input_ecco/ecco_oasim_esp06_below.bin',
(PID.TID 0000.0001) > RT_EsFile( 7)='input_ecco/ecco_oasim_esp07_below.bin',
(PID.TID 0000.0001) > RT_EsFile( 8)='input_ecco/ecco_oasim_esp08_below.bin',
(PID.TID 0000.0001) > RT_EsFile( 9)='input_ecco/ecco_oasim_esp09_below.bin',
(PID.TID 0000.0001) > RT_EsFile(10)='input_ecco/ecco_oasim_esp10_below.bin',
(PID.TID 0000.0001) > RT_EsFile(11)='input_ecco/ecco_oasim_esp11_below.bin',
(PID.TID 0000.0001) > RT_EsFile(12)='input_ecco/ecco_oasim_esp12_below.bin',
(PID.TID 0000.0001) > RT_EsFile(13)='input_ecco/ecco_oasim_esp13_below.bin',
(PID.TID 0000.0001) > RT_E_period= -12.,
(PID.TID 0000.0001) >#
(PID.TID 0000.0001) > RT_icefile = 'eccov3/SIarea.bin',
(PID.TID 0000.0001) > RT_icestartdate1 = 19990101,
(PID.TID 0000.0001) > RT_icestartdate2 = 120000,
(PID.TID 0000.0001) > RT_iceperiod     = 86400.0,
(PID.TID 0000.0001) > /
(PID.TID 0000.0001) > &RADTRANS_PARAMS
(PID.TID 0000.0001) > RT_wbEdges=400,412.5,437.5,462.5,487.5,512.5,537.5,562.5,587.5,612.5,637.5,662.5,687.5,700,
(PID.TID 0000.0001) > RT_wbRefWLs=400,425,450,475,500,525,550,575,600,625,650,675,700,
(PID.TID 0000.0001) > RT_kmax=22,
(PID.TID 0000.0001) > RT_useMeanCosSolz=.TRUE.,
(PID.TID 0000.0001) > /
(PID.TID 0000.0001) 
(PID.TID 0000.0001)  ===================================
(PID.TID 0000.0001)  PTRACERS_READPARMS: opening data.ptracers
(PID.TID 0000.0001)  OPEN_COPY_DATA_FILE: opening file data.ptracers
(PID.TID 0000.0001) // =======================================================
(PID.TID 0000.0001) // Parameter file "data.ptracers"
(PID.TID 0000.0001) // =======================================================
(PID.TID 0000.0001) > &PTRACERS_PARM01
(PID.TID 0000.0001) > PTRACERS_numInUse= 36,
(PID.TID 0000.0001) > PTRACERS_Iter0= 0,
(PID.TID 0000.0001) >#
(PID.TID 0000.0001) > PTRACERS_advScheme=36*33,
(PID.TID 0000.0001) > PTRACERS_diffKh=36*0.E3,
(PID.TID 0000.0001) > PTRACERS_diffKr=36*1.E-5,
(PID.TID 0000.0001) > PTRACERS_useGMRedi=36*.TRUE.,
(PID.TID 0000.0001) > PTRACERS_useKPP=36*.TRUE.,
(PID.TID 0000.0001) >#
(PID.TID 0000.0001) >       PTRACERS_names(1)= 'DIC',
(PID.TID 0000.0001) >       PTRACERS_names(4)= 'NH4',
(PID.TID 0000.0001) >       PTRACERS_names(3)= 'NO2',
(PID.TID 0000.0001) >       PTRACERS_names(2)= 'NO3',
(PID.TID 0000.0001) >       PTRACERS_names(5)= 'PO4',
(PID.TID 0000.0001) >       PTRACERS_names(7)= 'SiO2',
(PID.TID 0000.0001) >       PTRACERS_names(6)= 'FeT',
(PID.TID 0000.0001) >       PTRACERS_names(8)= 'DOC',
(PID.TID 0000.0001) >       PTRACERS_names(9)= 'DON',
(PID.TID 0000.0001) >       PTRACERS_names(10)= 'DOP',
(PID.TID 0000.0001) >       PTRACERS_names(11)= 'DOFe',
(PID.TID 0000.0001) >       PTRACERS_names(12)= 'POC',
(PID.TID 0000.0001) >       PTRACERS_names(13)= 'PON',
(PID.TID 0000.0001) >       PTRACERS_names(14)= 'POP',
(PID.TID 0000.0001) >       PTRACERS_names(16)= 'POSi',
(PID.TID 0000.0001) >       PTRACERS_names(15)= 'POFe',
(PID.TID 0000.0001) >       PTRACERS_names(17)= 'PIC',
(PID.TID 0000.0001) >       PTRACERS_names(18)= 'ALK',
(PID.TID 0000.0001) >       PTRACERS_names(19)= 'O2',
(PID.TID 0000.0001) >       PTRACERS_names(20)= 'CDOM01',
(PID.TID 0000.0001) >       PTRACERS_names(21)= 'c01',
(PID.TID 0000.0001) >       PTRACERS_names(22)= 'c02',
(PID.TID 0000.0001) >       PTRACERS_names(23)= 'c03',
(PID.TID 0000.0001) >       PTRACERS_names(24)= 'c04',
(PID.TID 0000.0001) >       PTRACERS_names(25)= 'n01',
(PID.TID 0000.0001) >       PTRACERS_names(26)= 'n02',
(PID.TID 0000.0001) >       PTRACERS_names(27)= 'n03',
(PID.TID 0000.0001) >       PTRACERS_names(28)= 'n04',
(PID.TID 0000.0001) >       PTRACERS_names(29)= 'p01',
(PID.TID 0000.0001) >       PTRACERS_names(30)= 'p02',
(PID.TID 0000.0001) >       PTRACERS_names(31)= 'p03',
(PID.TID 0000.0001) >       PTRACERS_names(32)= 'p04',
(PID.TID 0000.0001) >       PTRACERS_names(33)= 'fe01',
(PID.TID 0000.0001) >       PTRACERS_names(34)= 'fe02',
(PID.TID 0000.0001) >       PTRACERS_names(35)= 'fe03',
(PID.TID 0000.0001) >       PTRACERS_names(36)= 'fe04',
(PID.TID 0000.0001) >
(PID.TID 0000.0001) >
(PID.TID 0000.0001) > PTRACERS_initialFile(1)='input_ecco/glodap_tco2_ann-3d.bin',
(PID.TID 0000.0001) > PTRACERS_initialFile(4)='DARWIN_ECCO_run17/nh4_y2000.data',
(PID.TID 0000.0001) > PTRACERS_initialFile(3)='DARWIN_ECCO_run17/no2_y2000.data',
(PID.TID 0000.0001) > PTRACERS_initialFile(2)='input_ecco/lev01_nitrate_ann-3d.bin',
(PID.TID 0000.0001) > PTRACERS_initialFile(5)='input_ecco/lev01_phosphate_ann-3d.bin',
(PID.TID 0000.0001) > PTRACERS_initialFile(7)='input_ecco/lev01_silicate_ann-3d.bin ',
(PID.TID 0000.0001) > PTRACERS_initialFile(6)='DARWIN_ECCO_run17/fet_y2000.data',
(PID.TID 0000.0001) > PTRACERS_initialFile(8)='DARWIN_ECCO_run17/doc_y2000.data',
(PID.TID 0000.0001) > PTRACERS_initialFile(9)='DARWIN_ECCO_run17/don_y2000.data',
(PID.TID 0000.0001) > PTRACERS_initialFile(10)='DARWIN_ECCO_run17/dop_y2000.data',
(PID.TID 0000.0001) > PTRACERS_initialFile(11)='DARWIN_ECCO_run17/dofe_y2000.data',
(PID.TID 0000.0001) > PTRACERS_initialFile(12)='DARWIN_ECCO_run17/poc_y2000.data',
(PID.TID 0000.0001) > PTRACERS_initialFile(13)='DARWIN_ECCO_run17/pon_y2000.data',
(PID.TID 0000.0001) > PTRACERS_initialFile(14)='DARWIN_ECCO_run17/pop_y2000.data',
(PID.TID 0000.0001) > PTRACERS_initialFile(16)='DARWIN_ECCO_run17/posi_y2000.data',
(PID.TID 0000.0001) > PTRACERS_initialFile(15)='DARWIN_ECCO_run17/pofe_y2000.data',
(PID.TID 0000.0001) > PTRACERS_initialFile(17)='DARWIN_ECCO_run17/pic_y2000.data',
(PID.TID 0000.0001) > PTRACERS_initialFile(18)='input_ecco/glodap_alk_ann-3d.bin',
(PID.TID 0000.0001) > PTRACERS_initialFile(19)='input_ecco/lev01_oxygen_ann-3d.bin',
(PID.TID 0000.0001) > PTRACERS_initialFile(20)='input_ecco/CDOM_run129abb4.bin',
(PID.TID 0000.0001) > PTRACERS_initialFile(21)='DARWIN_ECCO_run17/phy_6species_y2000.data',
(PID.TID 0000.0001) > PTRACERS_initialFile(22)='DARWIN_ECCO_run17/phy_6species_y2000.data',
(PID.TID 0000.0001) > PTRACERS_initialFile(23)='DARWIN_ECCO_run17/phy_6species_y2000.data',
(PID.TID 0000.0001) > PTRACERS_initialFile(24)='DARWIN_ECCO_run17/phy_6species_y2000.data',
(PID.TID 0000.0001) > PTRACERS_initialFile(25)='DARWIN_ECCO_run17/phy_6speciesn_y2000.data',
(PID.TID 0000.0001) > PTRACERS_initialFile(26)='DARWIN_ECCO_run17/phy_6speciesn_y2000.data',
(PID.TID 0000.0001) > PTRACERS_initialFile(27)='DARWIN_ECCO_run17/phy_6speciesn_y2000.data',
(PID.TID 0000.0001) > PTRACERS_initialFile(28)='DARWIN_ECCO_run17/phy_6speciesn_y2000.data',
(PID.TID 0000.0001) > PTRACERs_initialFile(29)='DARWIN_ECCO_run17/phy_6speciesp_y2000.data'
(PID.TID 0000.0001) > PTRACERs_initialFile(30)='DARWIN_ECCO_run17/phy_6speciesp_y2000.data'
(PID.TID 0000.0001) > PTRACERs_initialFile(31)='DARWIN_ECCO_run17/phy_6speciesp_y2000.data'
(PID.TID 0000.0001) > PTRACERs_initialFile(32)='DARWIN_ECCO_run17/phy_6speciesp_y2000.data'
(PID.TID 0000.0001) > PTRACERs_initialFile(33)='DARWIN_ECCO_run17/phy_6speciesfe_y2000.data'
(PID.TID 0000.0001) > PTRACERs_initialFile(34)='DARWIN_ECCO_run17/phy_6speciesfe_y2000.data'
(PID.TID 0000.0001) > PTRACERs_initialFile(35)='DARWIN_ECCO_run17/phy_6speciesfe_y2000.data'
(PID.TID 0000.0001) > PTRACERs_initialFile(36)='DARWIN_ECCO_run17/phy_6speciesfe_y2000.data'
(PID.TID 0000.0001) > &
(PID.TID 0000.0001) 
(PID.TID 0000.0001)  PTRACERS_READPARMS: finished reading data.ptracers
(PID.TID 0000.0001)  GCHEM_READPARMS: opening data.gchem
(PID.TID 0000.0001)  OPEN_COPY_DATA_FILE: opening file data.gchem
(PID.TID 0000.0001) // =======================================================
(PID.TID 0000.0001) // Parameter file "data.gchem"
(PID.TID 0000.0001) // =======================================================
(PID.TID 0000.0001) > &GCHEM_PARM01
(PID.TID 0000.0001) >  useDARWIN=.TRUE.,
(PID.TID 0000.0001) >  nsubtime=1,
(PID.TID 0000.0001) > /
(PID.TID 0000.0001) 
(PID.TID 0000.0001)  GCHEM_READPARMS: finished reading data.gchem
(PID.TID 0000.0001)  DARWIN_READPARMS: opening data.darwin
(PID.TID 0000.0001)  OPEN_COPY_DATA_FILE: opening file data.darwin
(PID.TID 0000.0001) // =======================================================
(PID.TID 0000.0001) // Parameter file "data.darwin"
(PID.TID 0000.0001) // =======================================================
(PID.TID 0000.0001) >#######################
(PID.TID 0000.0001) > &DARWIN_FORCING_PARAMS
(PID.TID 0000.0001) > ironFile='input_ecco/mahowald2009_solubile_current_smooth_oce_mth-2d.bin',
(PID.TID 0000.0001) > ironPeriod= -12.,
(PID.TID 0000.0001) > darwin_inscal_iron= 2000.,
(PID.TID 0000.0001) >#
(PID.TID 0000.0001) > windFile='input_ecco/tren_speed_mth-2d.bin',
(PID.TID 0000.0001) > windPeriod= -12.,
(PID.TID 0000.0001) >#
(PID.TID 0000.0001) > icefile = 'eccov3/SIarea.bin',
(PID.TID 0000.0001) > icestartdate1 = 19990101,
(PID.TID 0000.0001) > icestartdate2 = 120000,
(PID.TID 0000.0001) > iceperiod     = 86400.0,
(PID.TID 0000.0001) >#
(PID.TID 0000.0001) > pCO2const = 278E-6,
(PID.TID 0000.0001) > /
(PID.TID 0000.0001) >########################
(PID.TID 0000.0001) > &DARWIN_PARAMS
(PID.TID 0000.0001) >#darwin_chlInitBalanced= T,
(PID.TID 0000.0001) > diaz_ini_fac= 0.1,
(PID.TID 0000.0001) > idebug=271,
(PID.TID 0000.0001) > jdebug=63,
(PID.TID 0000.0001) > darwin_seed= 56,
(PID.TID 0000.0001) > darwin_read_phos= F,
(PID.TID 0000.0001) > tempCoeffArr= 0.8,
(PID.TID 0000.0001) > PARmin= 0.1,
(PID.TID 0000.0001) > alpfe= 1.0,
(PID.TID 0000.0001) > freefemax = .1E-3,
(PID.TID 0000.0001) > depthfesed= 7000.,
(PID.TID 0000.0001) > scav_tau= 0.015,
(PID.TID 0000.0001) > scav_POC_wgt= 1.,
(PID.TID 0000.0001) > scav_POSi_wgt= 0.,
(PID.TID 0000.0001) > scav_PIC_wgt= 0.,
(PID.TID 0000.0001) > kdoc=  3.8580246913580247E-7,  ! 1/30day
(PID.TID 0000.0001) > kdop=  3.8580246913580247E-7,  ! 1/30day
(PID.TID 0000.0001) > kdon=  3.8580246913580247E-7,  ! 1/30day
(PID.TID 0000.0001) > kdofe= 3.8580246913580247E-7,  ! 1/30day
(PID.TID 0000.0001) > kPOC=  3.8580246913580247E-7,  ! 1/30day
(PID.TID 0000.0001) > kPOP=  3.8580246913580247E-7,  ! 1/30day
(PID.TID 0000.0001) > kPON=  3.8580246913580247E-7,  ! 1/30day
(PID.TID 0000.0001) > kPOFe= 3.8580246913580247E-7,  ! 1/30day
(PID.TID 0000.0001) > kPOSi= 7.7160493827160493E-8,  ! 1/150day
(PID.TID 0000.0001) > phygrazmin= 120E-10,
(PID.TID 0000.0001) > hollexp = 2.E0,
(PID.TID 0000.0001) > hillnumGraz = 0.01,
(PID.TID 0000.0001) > /
(PID.TID 0000.0001) >########################
(PID.TID 0000.0001) > &DARWIN_CDOM_PARAMS
(PID.TID 0000.0001) >  fracCDOM = 0.02,
(PID.TID 0000.0001) >  cdomdegrd= 3.8580e-08,
(PID.TID 0000.0001) >  CDOMbleach = 3.0000e-06,
(PID.TID 0000.0001) >  PARCDOM = 70.,
(PID.TID 0000.0001) >  R_NP_CDOM  = 16.,
(PID.TID 0000.0001) >  R_FeP_CDOM = 1.e-3,
(PID.TID 0000.0001) >  R_CP_CDOM  = 120.,
(PID.TID 0000.0001) >  CDOMcoeff = 21.,
(PID.TID 0000.0001) > /
(PID.TID 0000.0001) >########################
(PID.TID 0000.0001) > &DARWIN_RADTRANS_PARAMS
(PID.TID 0000.0001) > darwin_waterabsorbFile='OPTICS_COEFF/optics_water_Aug2014_bandave25.txt',
(PID.TID 0000.0001) > darwin_phytoabsorbFile='OPTICS_COEFF/optics_phyto_10_bandave25_newsize5_diffsyn_zoo.txt',
(PID.TID 0000.0001) > darwin_particleabsorbFile='OPTICS_COEFF/optics_detritus_8_sameas4_bandave25.txt',
(PID.TID 0000.0001) > darwin_Sdom=0.0145000,
(PID.TID 0000.0001) > darwin_aCDOM_fac = 0.30,
(PID.TID 0000.0001) > darwin_part_size_P = 1.e-17,
(PID.TID 0000.0001) > darwin_allomSpectra= T,
(PID.TID 0000.0001) > darwin_absorpSlope= -0.075,
(PID.TID 0000.0001) > darwin_bbbSlope=    -1.458,
(PID.TID 0000.0001) > darwin_scatSwitchSizeLog= 2.860959e-01, 2.923177e-01, 2.983251e-01, 3.140574e-01, 3.261153e-01,
(PID.TID 0000.0001) >                        3.440134e-01, 3.577670e-01, 3.618763e-01, 3.695100e-01, 3.718916e-01,
(PID.TID 0000.0001) >                        3.706202e-01, 3.640583e-01, 3.682107e-01,
(PID.TID 0000.0001) > darwin_scatSlopeSmall= 4.185404e+00, 4.208007e+00, 4.261307e+00, 4.302451e+00, 4.341968e+00,
(PID.TID 0000.0001) >                     4.373109e+00, 4.392320e+00, 4.416705e+00, 4.434653e+00, 4.454953e+00,
(PID.TID 0000.0001) >                     4.479809e+00, 4.507577e+00, 4.544071e+00,
(PID.TID 0000.0001) > darwin_scatSlopeLarge= 1.723153e+00, 1.718186e+00, 1.699666e+00, 1.687533e+00, 1.710736e+00,
(PID.TID 0000.0001) >                     1.732242e+00, 1.763117e+00, 1.811451e+00, 1.834619e+00, 1.863836e+00,
(PID.TID 0000.0001) >                     1.897289e+00, 1.861866e+00, 1.907367e+00,
(PID.TID 0000.0001) > /
(PID.TID 0000.0001) >########################
(PID.TID 0000.0001) > &DARWIN_RANDOM_PARAMS
(PID.TID 0000.0001) > /
(PID.TID 0000.0001) >########################
(PID.TID 0000.0001) > &DARWIN_TRAIT_PARAMS
(PID.TID 0000.0001) > grp_names= 'Pro', 'Syn', 'PicoEuk', 'Cocco', 'Diazo', 'Tricho', 'Diatom', 'Dino', 'Zoo',
(PID.TID 0000.0001) >#
(PID.TID 0000.0001) >#                        P  S pE  C Dz Tr  Dm  Dn  Z
(PID.TID 0000.0001) > grp_nplank(:)=          0, 0, 2, 0, 0, 0,  0,  0, 2,
(PID.TID 0000.0001) > grp_photo(:)=           1, 1, 1, 1, 1, 1,  1,  1, 0,
(PID.TID 0000.0001) > grp_pred(:)=            0, 0, 0, 0, 0, 0,  0,  1, 1
(PID.TID 0000.0001) > grp_prey(:)=            1, 1, 1, 1, 1, 1,  1,  1, 1,
(PID.TID 0000.0001) > grp_hasSi(:)=           0, 0, 0, 0, 0, 0,  1,  0, 0,
(PID.TID 0000.0001) > grp_hasPIC(:)=          0, 0, 0, 1, 0, 0,  0,  0, 0,
(PID.TID 0000.0001) > grp_DIAZO(:)=           0, 0, 0, 0, 1, 1,  0,  0, 0,
(PID.TID 0000.0001) > grp_useNH4(:)=          1, 1, 1, 1, 1, 1,  1,  1, 0,
(PID.TID 0000.0001) > grp_useNO2(:)=          1, 1, 1, 1, 1, 1,  1,  1, 0,
(PID.TID 0000.0001) > grp_useNO3(:)=          1, 1, 1, 1, 1, 1,  1,  1, 0,
(PID.TID 0000.0001) > grp_combNO(:)=          1, 1, 1, 1, 1, 1,  1,  1, 0,
(PID.TID 0000.0001) > grp_tempMort(:)=        0, 0, 0, 0, 0, 0, 0, 0,  0,
(PID.TID 0000.0001) > grp_tempMort2(:)=       0, 0, 0, 0, 0, 0, 0, 0,  0,
(PID.TID 0000.0001) > grp_aptype(:)=          4, 2, 1, 6, 8, 7, 5, 9, 11,
(PID.TID 0000.0001) >#
(PID.TID 0000.0001) > a_Xmin(:)= 8*120E-20,
(PID.TID 0000.0001) >
(PID.TID 0000.0001) ># grp_mqyield(:)= 8*4E-5,
(PID.TID 0000.0001) ># grp_chl2cmax(:)=  6*.2, .3, .2,
(PID.TID 0000.0001) > a_acclimtimescl(:)= 8*5.7870370370370370E-6,
(PID.TID 0000.0001) > logvolbase= -.9000,
(PID.TID 0000.0001) > logvolinc= .513,
(PID.TID 0000.0001) > logvol0ind(:)= 1, 2, 0, 5, 5, 9, 5, 7, 0,
(PID.TID 0000.0001) > grp_logvolind(1:2,3)= 4, 4,
(PID.TID 0000.0001) > grp_logvolind(1:2,9)= 8, 12,
(PID.TID 0000.0001) > a_biosink(:)= 8*6.951416635391563E-7, 0.,  ! .05*dm**.85
(PID.TID 0000.0001) > b_biosink(:)= 8*.2833333333333333, 0.,
(PID.TID 0000.0001) > a_PCmax(1)= 0.90,
(PID.TID 0000.0001) > a_PCmax(2)= 0.90,
(PID.TID 0000.0001) > a_PCmax(3)= 0.90,
(PID.TID 0000.0001) > a_PCmax(4)= 1.4,
(PID.TID 0000.0001) > a_PCmax(5)= 0.95,
(PID.TID 0000.0001) > a_PCmax(6)= 0.95,
(PID.TID 0000.0001) > a_PCmax(7)= 3.9,
(PID.TID 0000.0001) > a_PCmax(8)= 1.7,
(PID.TID 0000.0001) >
(PID.TID 0000.0001) > a_PCmax_denom(:)= 8*86400.,
(PID.TID 0000.0001) > b_PCmax(:)= 0.08, 0.08, 0.08, -0.08, -0.08, -0.08,-0.08, -0.08, 0.,
(PID.TID 0000.0001) >#
(PID.TID 0000.0001) > a_Qpmin = 8*0.005, 0.008,
(PID.TID 0000.0001) > a_Qpmax = 8*0.02,  0.01,
(PID.TID 0000.0001) > a_Qnmin = 8*7.0000000000000007E-002  , 0.1 ,
(PID.TID 0000.0001) > b_Qnmin = 8*-0.17000000000000001     , 0.0 ,
(PID.TID 0000.0001) > a_Qnmax = 8*0.25000000000000000      , 0.2 ,
(PID.TID 0000.0001) > b_Qnmax = 8*-0.13000000000000000     , 0.0 ,
(PID.TID 0000.0001) > a_Qfemin = 3*1.50E-6, 2*6.00E-6, 3*1.50E-6, 1E-6,
(PID.TID 0000.0001) > a_Qfemax = 8*8.0E-5,  2E-5,
(PID.TID 0000.0001) >#
(PID.TID 0000.0001) > darwin_effective_ksat= T,
(PID.TID 0000.0001) > darwin_select_kn_allom=2,
(PID.TID 0000.0001) >#
(PID.TID 0000.0001) > grp_ExportFracPreyPred(1:8,9)= 8*.8,
(PID.TID 0000.0001) > a_R_ChlC(9)= 0.,
(PID.TID 0000.0001) > a_grazemax(9)= 3.4722000000000000E-05,  ! prowe values
(PID.TID 0000.0001) > b_grazemax(9)= -0.16,
(PID.TID 0000.0001) >#
(PID.TID 0000.0001) > a_mort(:)= 8*6e-07, 2e-7  ! 1/7days, 1/50days
(PID.TID 0000.0001) > a_mort2(:)= 8*6.e-7, 8.e-7,  ! 16*.6/120/day
(PID.TID 0000.0001) > a_phytoTempExp2= 8*.0003,
(PID.TID 0000.0001) > a_R_PC(:)= 9*0.008333333333333333,
(PID.TID 0000.0001) > a_R_FeC(:)= 4*0.008333333333333333E-3, 2*0.03333333333333333E-3, 2*0.008333333333333333E-3, 1*0.001333333333333333E-3
(PID.TID 0000.0001) > a_R_NC(:)= 4*0.13333333333333333, 2*0.3333333333333333, 3*0.13333333333333333,
(PID.TID 0000.0001) > a_R_SiC(:)= 6*0., 0.13333333333333333, 2*0.,
(PID.TID 0000.0001) > a_R_PICPOC(:)= 3*0., .8, 5*0.,
(PID.TID 0000.0001) > a_kgrazesat(:)= 8*1.5, 1*1.5,
(PID.TID 0000.0001) > b_kgrazesat(:)= 9*0,
(PID.TID 0000.0001) >#
(PID.TID 0000.0001) > grp_ass_eff(:,:)=81*0.5,
(PID.TID 0000.0001) > /
(PID.TID 0000.0001) 
(PID.TID 0000.0001) Using Millero (1995)/Mehrbach K1 and K2 coefficients
(PID.TID 0000.0001) Using Dickson and Riley (1979) KF coefficient
(PID.TID 0000.0001) Using Uppstrom (1974) BT estimation from salinity
(PID.TID 0000.0001) Using Riley (1965) FT estimation from salinity
(PID.TID 0000.0001)  ===================================
(PID.TID 0000.0001) GCHEM_TR_REGISTER:  Start registering GCHEM tracers
(PID.TID 0000.0001)   DARWIN_TR_REGISTER:  number of DARWIN tracers=   36
(PID.TID 0000.0001)   DARWIN_TR_REGISTER:   starting at pTrc num=    1
(PID.TID 0000.0001)   DARWIN_TR_REGISTER:  Numb. Trac & SepForc Trac:   36   36
(PID.TID 0000.0001) GCHEM_TR_REGISTER:  Numb. Trac & SepForc Trac:   36   36
(PID.TID 0000.0001) 
(PID.TID 0000.0001)  OFFLINE_READPARMS: opening data.off
(PID.TID 0000.0001)  OPEN_COPY_DATA_FILE: opening file data.off
(PID.TID 0000.0001) // =======================================================
(PID.TID 0000.0001) // Parameter file "data.off"
(PID.TID 0000.0001) // =======================================================
(PID.TID 0000.0001) > &OFFLINE_PARM01
(PID.TID 0000.0001) >  UvelFile= 'ECCO_Iter3.73daily/DDuvel/DDuvel',
(PID.TID 0000.0001) >  VvelFile= 'ECCO_Iter3.73daily/DDvvel/DDvvel',
(PID.TID 0000.0001) >  WvelFile= 'ECCO_Iter3.73daily/DDwvel/DDwvel',
(PID.TID 0000.0001) >  GMwxFile= 'ECCO_Iter3.73daily/DGMkwx/DGMkwx',
(PID.TID 0000.0001) >  GMwyFile= 'ECCO_Iter3.73daily/DGMkwy/DGMkwy',
(PID.TID 0000.0001) >  GMwzFile= 'ECCO_Iter3.73daily/DGMkwz/DGMkwz',
(PID.TID 0000.0001) ># ConvFile= 'input_off/Convtave',
(PID.TID 0000.0001) >  SaltFile= 'ECCO_Iter3.73daily/DDsalt/DDsalt',
(PID.TID 0000.0001) >  ThetFile= 'ECCO_Iter3.73daily/DDtheta/DDtheta',
(PID.TID 0000.0001) >  SFluxFile='ECCO_Iter3.73daily/DFOSflux/DFOSflux',
(PID.TID 0000.0001) ># HFluxFile=' ',
(PID.TID 0000.0001) >  KPP_DiffSFile='ECCO_Iter3.73daily/DKPPdiffs/DKPPdiffs',
(PID.TID 0000.0001) >  KPP_ghatKFile='ECCO_Iter3.73daily/DKPPghatK/DKPPghatK',
(PID.TID 0000.0001) >### offGen2DFile='ECCO_Iter3.73daily/SIarea/SIarea',
(PID.TID 0000.0001) > &end
(PID.TID 0000.0001) >
(PID.TID 0000.0001) > &OFFLINE_PARM02
(PID.TID 0000.0001) >  offlineIter0=78912,
(PID.TID 0000.0001) >  deltaToffline=3600.,
(PID.TID 0000.0001) >  offlineForcingPeriod=86400.,
(PID.TID 0000.0001) >  offlineForcingCycle=31104000.,
(PID.TID 0000.0001) >  offlineLoadPrec=32,
(PID.TID 0000.0001) > &end
(PID.TID 0000.0001) >
(PID.TID 0000.0001) 
(PID.TID 0000.0001)  OFFLINE_READPARMS: finished reading data.off
(PID.TID 0000.0001)  DIAGNOSTICS_READPARMS: opening data.diagnostics
(PID.TID 0000.0001)  OPEN_COPY_DATA_FILE: opening file data.diagnostics
(PID.TID 0000.0001) // =======================================================
(PID.TID 0000.0001) // Parameter file "data.diagnostics"
(PID.TID 0000.0001) // =======================================================
(PID.TID 0000.0001) ># Diagnostics
(PID.TID 0000.0001) ># ==================
(PID.TID 0000.0001) ># PAR                 Photosynthetically active radiation
(PID.TID 0000.0001) ># PP                  Primary production
(PID.TID 0000.0001) ># Nfix                Nitrogen fixation
(PID.TID 0000.0001) ># Rstar01             Rstar^PO4 of Phy01
(PID.TID 0000.0001) ># Diver1              # Phy species over absolute threshold'
(PID.TID 0000.0001) ># Diver2              # Phy species over threshold for proportion of biomass'
(PID.TID 0000.0001) ># Diver3              # Phy species constituting bulk of biomass'
(PID.TID 0000.0001) ># Diver4              # Phy species over threshold for ratio to maximum species'
(PID.TID 0000.0001) >#
(PID.TID 0000.0001) > &diagnostics_list
(PID.TID 0000.0001) > dumpatlast= .TRUE.,
(PID.TID 0000.0001) >#
(PID.TID 0000.0001) >  filename( 1) = '3d',
(PID.TID 0000.0001) >  frequency(1) = 2592000.,
(PID.TID 0000.0001) >  frequency(1) = 3600.,
(PID.TID 0000.0001) >  fileflags(1) = 'D       ',
(PID.TID 0000.0001) ># frequency(1) = 31104000.,
(PID.TID 0000.0001) >  fields( 1,1) = 'TRAC01  ',
(PID.TID 0000.0001) >  fields( 2,1) = 'TRAC02  ',
(PID.TID 0000.0001) >  fields( 3,1) = 'TRAC03  ',
(PID.TID 0000.0001) >  fields( 4,1) = 'TRAC04  ',
(PID.TID 0000.0001) >  fields( 5,1) = 'TRAC05  ',
(PID.TID 0000.0001) >  fields( 6,1) = 'TRAC06  ',
(PID.TID 0000.0001) >  fields( 7,1) = 'TRAC07  ',
(PID.TID 0000.0001) >  fields( 8,1) = 'TRAC08  ',
(PID.TID 0000.0001) >  fields( 9,1) = 'TRAC09  ',
(PID.TID 0000.0001) >  fields(10,1) = 'TRAC10  ',
(PID.TID 0000.0001) >  fields(11,1) = 'TRAC11  ',
(PID.TID 0000.0001) >  fields(12,1) = 'TRAC12  ',
(PID.TID 0000.0001) >  fields(13,1) = 'TRAC13  ',
(PID.TID 0000.0001) >  fields(14,1) = 'TRAC14  ',
(PID.TID 0000.0001) >  fields(15,1) = 'TRAC15  ',
(PID.TID 0000.0001) >  fields(16,1) = 'TRAC16  ',
(PID.TID 0000.0001) >  fields(17,1) = 'TRAC17  ',
(PID.TID 0000.0001) >  fields(18,1) = 'TRAC18  ',
(PID.TID 0000.0001) >  fields(19,1) = 'TRAC19  ',
(PID.TID 0000.0001) >  fields(20,1) = 'TRAC20  ',
(PID.TID 0000.0001) >  fields(21,1) = 'TRAC21  ',
(PID.TID 0000.0001) >  fields(22,1) = 'TRAC22  ',
(PID.TID 0000.0001) >  fields(23,1) = 'TRAC23  ',
(PID.TID 0000.0001) >  fields(24,1) = 'TRAC24  ',
(PID.TID 0000.0001) >  fields(25,1) = 'TRAC25  ',
(PID.TID 0000.0001) >  fields(26,1) = 'TRAC26  ',
(PID.TID 0000.0001) >  fields(27,1) = 'TRAC27  ',
(PID.TID 0000.0001) >  fields(28,1) = 'TRAC28  ',
(PID.TID 0000.0001) >  fields(29,1) = 'TRAC29  ',
(PID.TID 0000.0001) >  fields(30,1) = 'TRAC30  ',
(PID.TID 0000.0001) >  fields(31,1) = 'TRAC31  ',
(PID.TID 0000.0001) >  fields(32,1) = 'TRAC32  ',
(PID.TID 0000.0001) >  fields(33,1) = 'TRAC33  ',
(PID.TID 0000.0001) >  fields(34,1) = 'TRAC34  ',
(PID.TID 0000.0001) >  fields(35,1) = 'TRAC35  ',
(PID.TID 0000.0001) >  fields(36,1) = 'TRAC36  ',
(PID.TID 0000.0001) >  fields(37,1) = 'PAR     ',
(PID.TID 0000.0001) >  fields(38,1) = 'PP      ',
(PID.TID 0000.0001) >  fields(39,1) = 'Nfix    ',
(PID.TID 0000.0001) >  fields(40,1) = 'Denit   ',
(PID.TID 0000.0001) >  fields(41,1) = 'pH      ',
(PID.TID 0000.0001) >  fields(42,1) = 'pCO2    ',
(PID.TID 0000.0001) >  fields(43,1) = 'PC0001  ',
(PID.TID 0000.0001) >  fields(44,1) = 'PChl0001',
(PID.TID 0000.0001) >  fields(45,1) = 'VN0001  ',
(PID.TID 0000.0001) >  fields(46,1) = 'MODE0001',
(PID.TID 0000.0001) >  fields(47,1) = 'Fe_C0001',
(PID.TID 0000.0001) >  fields(48,1) = 'exQc0001',
(PID.TID 0000.0001) >  fields(49,1) = 'PCg0001 ',
(PID.TID 0000.0001) >  fields(50,1) = 'CChl0001',
(PID.TID 0000.0001) >  fields(51,1) = 'NChl0001',
(PID.TID 0000.0001) >  fields(52,1) = 'NPho0001',
(PID.TID 0000.0001) >  fields(53,1) = 'NSyn0001',
(PID.TID 0000.0001) >  fields(54,1) = 'NPrn0001',
(PID.TID 0000.0001) >  fields(55,1) = 'NRNA0001',
(PID.TID 0000.0001) >  fields(56,1) = 'NDNA0001',
(PID.TID 0000.0001) >  fields(57,1) = 'NSTO0001',
(PID.TID 0000.0001) >  fields(58,1) = 'NEXC0001',
(PID.TID 0000.0001) >  fields(59,1) = 'PRNA0001',
(PID.TID 0000.0001) >  fields(60,1) = 'PDNA0001',
(PID.TID 0000.0001) >  fields(61,1) = 'PTHY0001',
(PID.TID 0000.0001) >  fields(62,1) = 'PCON0001',
(PID.TID 0000.0001) >  fields(63,1) = 'PSTO0001',
(PID.TID 0000.0001) >  fields(64,1) = 'PEXC0001',
(PID.TID 0000.0001) >  fields(65,1) = 'FPHO0001',
(PID.TID 0000.0001) >  fields(66,1) = 'FSTO0001',
(PID.TID 0000.0001) >  fields(67,1) = 'FEXC0001',
(PID.TID 0000.0001) >  fields(68,1) = 'CChl0002',
(PID.TID 0000.0001) >  fields(69,1) = 'NChl0002',
(PID.TID 0000.0001) >  fields(70,1) = 'NPho0002',
(PID.TID 0000.0001) >  fields(71,1) = 'NSyn0002',
(PID.TID 0000.0001) >  fields(72,1) = 'NPrn0002',
(PID.TID 0000.0001) >  fields(73,1) = 'NRNA0002',
(PID.TID 0000.0001) >  fields(74,1) = 'NDNA0002',
(PID.TID 0000.0001) >  fields(75,1) = 'NSTO0002',
(PID.TID 0000.0001) >  fields(76,1) = 'NEXC0002',
(PID.TID 0000.0001) >  fields(77,1) = 'PRNA0002',
(PID.TID 0000.0001) >  fields(78,1) = 'PDNA0002',
(PID.TID 0000.0001) >  fields(79,1) = 'PTHY0002',
(PID.TID 0000.0001) >  fields(80,1) = 'PCON0002',
(PID.TID 0000.0001) >  fields(81,1) = 'PSTO0002',
(PID.TID 0000.0001) >  fields(82,1) = 'PEXC0002',
(PID.TID 0000.0001) >  fields(83,1) = 'FPHO0002',
(PID.TID 0000.0001) >  fields(84,1) = 'FSTO0002',
(PID.TID 0000.0001) >  fields(85,1) = 'FEXC0002',
(PID.TID 0000.0001) >  fields(86,1) = 'PC0002  ',
(PID.TID 0000.0001) >  fields(87,1) = 'PChl0002',
(PID.TID 0000.0001) >  fields(88,1) = 'VN0002  ',
(PID.TID 0000.0001) >  fields(89,1) = 'MODE0002',
(PID.TID 0000.0001) >  fields(90,1) = 'Fe_C0002',
(PID.TID 0000.0001) >  fields(91,1) = 'exQc0002',
(PID.TID 0000.0001) >  fields(92,1) = 'PCg0002 ',
(PID.TID 0000.0001) >#
(PID.TID 0000.0001) >  filename( 2) = 'GC',
(PID.TID 0000.0001) >  frequency(2) = 2592000.,
(PID.TID 0000.0001) >  frequency(2) = 3600.,
(PID.TID 0000.0001) >  fileflags(2) = 'D       ',
(PID.TID 0000.0001) ># frequency(2) = 31104000.,
(PID.TID 0000.0001) >  fields( 1,2) = 'GC_Tr01 ',
(PID.TID 0000.0001) >  fields( 2,2) = 'GC_Tr02 ',
(PID.TID 0000.0001) >  fields( 3,2) = 'GC_Tr03 ',
(PID.TID 0000.0001) >  fields( 4,2) = 'GC_Tr04 ',
(PID.TID 0000.0001) >  fields( 5,2) = 'GC_Tr05 ',
(PID.TID 0000.0001) >  fields( 6,2) = 'GC_Tr06 ',
(PID.TID 0000.0001) >  fields( 7,2) = 'GC_Tr07 ',
(PID.TID 0000.0001) >  fields( 8,2) = 'GC_Tr08 ',
(PID.TID 0000.0001) >  fields( 9,2) = 'GC_Tr09 ',
(PID.TID 0000.0001) >  fields(10,2) = 'GC_Tr10 ',
(PID.TID 0000.0001) >  fields(11,2) = 'GC_Tr11 ',
(PID.TID 0000.0001) >  fields(12,2) = 'GC_Tr12 ',
(PID.TID 0000.0001) >  fields(13,2) = 'GC_Tr13 ',
(PID.TID 0000.0001) >  fields(14,2) = 'GC_Tr14 ',
(PID.TID 0000.0001) >  fields(15,2) = 'GC_Tr15 ',
(PID.TID 0000.0001) >  fields(16,2) = 'GC_Tr16 ',
(PID.TID 0000.0001) >  fields(17,2) = 'GC_Tr17 ',
(PID.TID 0000.0001) >  fields(18,2) = 'GC_Tr18 ',
(PID.TID 0000.0001) >  fields(19,2) = 'GC_Tr19 ',
(PID.TID 0000.0001) >  fields(20,2) = 'GC_Tr20 ',
(PID.TID 0000.0001) >  fields(21,2) = 'GC_Tr21 ',
(PID.TID 0000.0001) >  fields(22,2) = 'GC_Tr22 ',
(PID.TID 0000.0001) >  fields(23,2) = 'GC_Tr23 ',
(PID.TID 0000.0001) >  fields(24,2) = 'GC_Tr24 ',
(PID.TID 0000.0001) >  fields(25,2) = 'GC_Tr25 ',
(PID.TID 0000.0001) >  fields(26,2) = 'GC_Tr26 ',
(PID.TID 0000.0001) >  fields(27,2) = 'GC_Tr27 ',
(PID.TID 0000.0001) >  fields(28,2) = 'GC_Tr28 ',
(PID.TID 0000.0001) >  fields(29,2) = 'GC_Tr29 ',
(PID.TID 0000.0001) >  fields(30,2) = 'GC_Tr30 ',
(PID.TID 0000.0001) >  fields(31,2) = 'GC_Tr31 ',
(PID.TID 0000.0001) >  fields(32,2) = 'GC_Tr32 ',
(PID.TID 0000.0001) >  fields(33,2) = 'GC_Tr33 ',
(PID.TID 0000.0001) >  fields(34,2) = 'GC_Tr34 ',
(PID.TID 0000.0001) >  fields(35,2) = 'GC_Tr35 ',
(PID.TID 0000.0001) >  fields(36,2) = 'GC_Tr36 ',
(PID.TID 0000.0001) >#
(PID.TID 0000.0001) >#
(PID.TID 0000.0001) >  filename( 6) = 'iops',
(PID.TID 0000.0001) >  frequency(6) = 2592000.,
(PID.TID 0000.0001) ># frequency(6) = 31104000.,
(PID.TID 0000.0001) >  fields(  1,6) = 'a001    ',
(PID.TID 0000.0001) >  fields(  2,6) = 'a002    ',
(PID.TID 0000.0001) >  fields(  3,6) = 'a003    ',
(PID.TID 0000.0001) >  fields(  4,6) = 'a004    ',
(PID.TID 0000.0001) >  fields(  5,6) = 'a005    ',
(PID.TID 0000.0001) >  fields(  6,6) = 'a006    ',
(PID.TID 0000.0001) >  fields(  7,6) = 'a007    ',
(PID.TID 0000.0001) >  fields(  8,6) = 'a008    ',
(PID.TID 0000.0001) >  fields(  9,6) = 'a009    ',
(PID.TID 0000.0001) >  fields( 10,6) = 'a010    ',
(PID.TID 0000.0001) >  fields( 11,6) = 'a011    ',
(PID.TID 0000.0001) >  fields( 12,6) = 'a012    ',
(PID.TID 0000.0001) >  fields( 13,6) = 'a013    ',
(PID.TID 0000.0001) >  fields( 14,6) = 'bt001   ',
(PID.TID 0000.0001) >  fields( 15,6) = 'bt002   ',
(PID.TID 0000.0001) >  fields( 16,6) = 'bt003   ',
(PID.TID 0000.0001) >  fields( 17,6) = 'bt004   ',
(PID.TID 0000.0001) >  fields( 18,6) = 'bt005   ',
(PID.TID 0000.0001) >  fields( 19,6) = 'bt006   ',
(PID.TID 0000.0001) >  fields( 20,6) = 'bt007   ',
(PID.TID 0000.0001) >  fields( 21,6) = 'bt008   ',
(PID.TID 0000.0001) >  fields( 22,6) = 'bt009   ',
(PID.TID 0000.0001) >  fields( 23,6) = 'bt010   ',
(PID.TID 0000.0001) >  fields( 24,6) = 'bt011   ',
(PID.TID 0000.0001) >  fields( 25,6) = 'bt012   ',
(PID.TID 0000.0001) >  fields( 26,6) = 'bt013   ',
(PID.TID 0000.0001) >  fields( 27,6) = 'bb001   ',
(PID.TID 0000.0001) >  fields( 28,6) = 'bb002   ',
(PID.TID 0000.0001) >  fields( 29,6) = 'bb003   ',
(PID.TID 0000.0001) >  fields( 30,6) = 'bb004   ',
(PID.TID 0000.0001) >  fields( 31,6) = 'bb005   ',
(PID.TID 0000.0001) >  fields( 62,6) = 'bb006   ',
(PID.TID 0000.0001) >  fields( 33,6) = 'bb007   ',
(PID.TID 0000.0001) >  fields( 34,6) = 'bb008   ',
(PID.TID 0000.0001) >  fields( 35,6) = 'bb009   ',
(PID.TID 0000.0001) >  fields( 36,6) = 'bb010   ',
(PID.TID 0000.0001) >  fields( 37,6) = 'bb011   ',
(PID.TID 0000.0001) >  fields( 38,6) = 'bb012   ',
(PID.TID 0000.0001) >  fields( 39,6) = 'bb013   ',
(PID.TID 0000.0001) >  fields( 40,6) = 'aCDOM001',
(PID.TID 0000.0001) >  fields( 41,6) = 'aCDOM002',
(PID.TID 0000.0001) >  fields( 42,6) = 'aCDOM003',
(PID.TID 0000.0001) >  fields( 43,6) = 'aCDOM004',
(PID.TID 0000.0001) >  fields( 44,6) = 'aCDOM005',
(PID.TID 0000.0001) >  fields( 45,6) = 'aCDOM006',
(PID.TID 0000.0001) >  fields( 46,6) = 'aCDOM007',
(PID.TID 0000.0001) >  fields( 47,6) = 'aCDOM008',
(PID.TID 0000.0001) >  fields( 48,6) = 'aCDOM009',
(PID.TID 0000.0001) >  fields( 49,6) = 'aCDOM010',
(PID.TID 0000.0001) >  fields( 50,6) = 'aCDOM011',
(PID.TID 0000.0001) >  fields( 51,6) = 'aCDOM012',
(PID.TID 0000.0001) >  fields( 52,6) = 'aCDOM013',
(PID.TID 0000.0001) >#
(PID.TID 0000.0001) >  filename( 7) = 'par',
(PID.TID 0000.0001) >  frequency(7) = 2592000.,
(PID.TID 0000.0001) ># frequency(7) = 31104000.,
(PID.TID 0000.0001) ># levels(1:10,7) = 1, 2, 3, 4, 5, 6, 7, 8, 9, 10,
(PID.TID 0000.0001) >  fields(  1,7) = 'Ed001   ',
(PID.TID 0000.0001) >  fields(  2,7) = 'Ed002   ',
(PID.TID 0000.0001) >  fields(  3,7) = 'Ed003   ',
(PID.TID 0000.0001) >  fields(  4,7) = 'Ed004   ',
(PID.TID 0000.0001) >  fields(  5,7) = 'Ed005   ',
(PID.TID 0000.0001) >  fields(  6,7) = 'Ed006   ',
(PID.TID 0000.0001) >  fields(  7,7) = 'Ed007   ',
(PID.TID 0000.0001) >  fields(  8,7) = 'Ed008   ',
(PID.TID 0000.0001) >  fields(  9,7) = 'Ed009   ',
(PID.TID 0000.0001) >  fields( 10,7) = 'Ed010   ',
(PID.TID 0000.0001) >  fields( 11,7) = 'Ed011   ',
(PID.TID 0000.0001) >  fields( 12,7) = 'Ed012   ',
(PID.TID 0000.0001) >  fields( 13,7) = 'Ed013   ',
(PID.TID 0000.0001) >  fields( 14,7) = 'Es001   ',
(PID.TID 0000.0001) >  fields( 15,7) = 'Es002   ',
(PID.TID 0000.0001) >  fields( 16,7) = 'Es003   ',
(PID.TID 0000.0001) >  fields( 17,7) = 'Es004   ',
(PID.TID 0000.0001) >  fields( 18,7) = 'Es005   ',
(PID.TID 0000.0001) >  fields( 19,7) = 'Es006   ',
(PID.TID 0000.0001) >  fields( 20,7) = 'Es007   ',
(PID.TID 0000.0001) >  fields( 21,7) = 'Es008   ',
(PID.TID 0000.0001) >  fields( 22,7) = 'Es009   ',
(PID.TID 0000.0001) >  fields( 23,7) = 'Es010   ',
(PID.TID 0000.0001) >  fields( 24,7) = 'Es011   ',
(PID.TID 0000.0001) >  fields( 25,7) = 'Es012   ',
(PID.TID 0000.0001) >  fields( 26,7) = 'Es013   ',
(PID.TID 0000.0001) >  fields( 27,7) = 'Eu001   ',
(PID.TID 0000.0001) >  fields( 28,7) = 'Eu002   ',
(PID.TID 0000.0001) >  fields( 29,7) = 'Eu003   ',
(PID.TID 0000.0001) >  fields( 30,7) = 'Eu004   ',
(PID.TID 0000.0001) >  fields( 31,7) = 'Eu005   ',
(PID.TID 0000.0001) >  fields( 32,7) = 'Eu006   ',
(PID.TID 0000.0001) >  fields( 33,7) = 'Eu007   ',
(PID.TID 0000.0001) >  fields( 34,7) = 'Eu008   ',
(PID.TID 0000.0001) >  fields( 35,7) = 'Eu009   ',
(PID.TID 0000.0001) >  fields( 36,7) = 'Eu010   ',
(PID.TID 0000.0001) >  fields( 37,7) = 'Eu011   ',
(PID.TID 0000.0001) >  fields( 38,7) = 'Eu012   ',
(PID.TID 0000.0001) >  fields( 39,7) = 'Eu013   ',
(PID.TID 0000.0001) >  fields( 40,7) = 'PAR001  ',
(PID.TID 0000.0001) >  fields( 41,7) = 'PAR002  ',
(PID.TID 0000.0001) >  fields( 42,7) = 'PAR003  ',
(PID.TID 0000.0001) >  fields( 43,7) = 'PAR004  ',
(PID.TID 0000.0001) >  fields( 44,7) = 'PAR005  ',
(PID.TID 0000.0001) >  fields( 45,7) = 'PAR006  ',
(PID.TID 0000.0001) >  fields( 46,7) = 'PAR007  ',
(PID.TID 0000.0001) >  fields( 47,7) = 'PAR008  ',
(PID.TID 0000.0001) >  fields( 48,7) = 'PAR009  ',
(PID.TID 0000.0001) >  fields( 49,7) = 'PAR010  ',
(PID.TID 0000.0001) >  fields( 50,7) = 'PAR011  ',
(PID.TID 0000.0001) >  fields( 51,7) = 'PAR012  ',
(PID.TID 0000.0001) >  fields( 52,7) = 'PAR013  ',
(PID.TID 0000.0001) >#
(PID.TID 0000.0001) >  filename( 8) = '2d',
(PID.TID 0000.0001) >  frequency(8) = 2592000.,
(PID.TID 0000.0001) ># frequency(8) = 31104000.,
(PID.TID 0000.0001) >  fields( 1,8) = 'fluxCO2 ',
(PID.TID 0000.0001) >  fields( 2,8) = 'gDICsurf',
(PID.TID 0000.0001) >  fields( 3,8) = 'gALKsurf',
(PID.TID 0000.0001) >  fields( 4,8) = 'gO2surf ',
(PID.TID 0000.0001) >#
(PID.TID 0000.0001) > &
(PID.TID 0000.0001) >
(PID.TID 0000.0001) ># Parameter for Diagnostics of per level statistics:
(PID.TID 0000.0001) >#-----------------
(PID.TID 0000.0001) ># for each output-stream:
(PID.TID 0000.0001) >#  stat_fname(n) : prefix of the output file name (only 8.c long) for
(PID.TID 0000.0001) >#outp.stream n
(PID.TID 0000.0001) >#  stat_freq(n):< 0 : write snap-shot output every |stat_freq| seconds
(PID.TID 0000.0001) >#               > 0 : write time-average output every stat_freq seconds
(PID.TID 0000.0001) >#  stat_phase(n)    : write at time = stat_phase + multiple of |stat_freq|
(PID.TID 0000.0001) >#  stat_region(:,n) : list of "regions" (default: 1 region only=global)
(PID.TID 0000.0001) >#  stat_fields(:,n) : list of diagnostics fields (8.c) (see
(PID.TID 0000.0001) >#"available_diagnostics.log"
(PID.TID 0000.0001) >#                 file for the list of all available diag. in this particular
(PID.TID 0000.0001) >#config)
(PID.TID 0000.0001) >#-----------------
(PID.TID 0000.0001) > &DIAG_STATIS_PARMS
(PID.TID 0000.0001) > diagst_mnc=.FALSE.,
(PID.TID 0000.0001) >     stat_freq(1:3)= 3*10800.,
(PID.TID 0000.0001) >    stat_phase(1:3)= 3*0.,
(PID.TID 0000.0001) > stat_fields(1,1)= 'PP      '
(PID.TID 0000.0001) > stat_fields(1,2)= 'Nfix    '
(PID.TID 0000.0001) > stat_fields(1,3)= 'Denit   '
(PID.TID 0000.0001) >    stat_fname(1)= 'statsPP',
(PID.TID 0000.0001) >    stat_fname(2)= 'statsNfix',
(PID.TID 0000.0001) >    stat_fname(3)= 'statsDenit',
(PID.TID 0000.0001) > &
(PID.TID 0000.0001) 
(PID.TID 0000.0001) S/R DIAGNOSTICS_READPARMS, read namelist "diagnostics_list": start
(PID.TID 0000.0001) S/R DIAGNOSTICS_READPARMS, read namelist "diagnostics_list": OK
(PID.TID 0000.0001) S/R DIAGNOSTICS_READPARMS, read namelist "DIAG_STATIS_PARMS": start
(PID.TID 0000.0001) S/R DIAGNOSTICS_READPARMS, read namelist "DIAG_STATIS_PARMS": OK
(PID.TID 0000.0001)  DIAGNOSTICS_READPARMS: global parameter summary:
(PID.TID 0000.0001)  dumpAtLast = /* always write time-ave diags at the end */
(PID.TID 0000.0001)                   T
(PID.TID 0000.0001)     ;
(PID.TID 0000.0001)  diag_mnc =   /* write NetCDF output files */
(PID.TID 0000.0001)                   T
(PID.TID 0000.0001)     ;
(PID.TID 0000.0001)  useMissingValue = /* put MissingValue where mask = 0 */
(PID.TID 0000.0001)                   F
(PID.TID 0000.0001)     ;
(PID.TID 0000.0001)  diagCG_maxIters = /* max number of iters in diag_cg2d */
(PID.TID 0000.0001)                     300
(PID.TID 0000.0001)     ;
(PID.TID 0000.0001)  diagCG_resTarget = /* residual target for diag_cg2d */
(PID.TID 0000.0001)                 1.000000000000000E-07
(PID.TID 0000.0001)     ;
(PID.TID 0000.0001)  diagCG_pcOffDFac = /* preconditioner off-diagonal factor */
(PID.TID 0000.0001)                 9.611687812379854E-01
(PID.TID 0000.0001)     ;
(PID.TID 0000.0001) -----------------------------------------------------
(PID.TID 0000.0001)  DIAGNOSTICS_READPARMS: active diagnostics summary:
(PID.TID 0000.0001) -----------------------------------------------------
(PID.TID 0000.0001) Creating Output Stream: 3d
(PID.TID 0000.0001) Output Frequency:       3600.000000 ; Phase:           0.000000
(PID.TID 0000.0001)  Averaging Freq.:       3600.000000 , Phase:           0.000000 , Cycle:   1
(PID.TID 0000.0001)  missing value: -9.990000000000E+02 ; F-Flags="D       "
(PID.TID 0000.0001)  Levels:    will be set later
(PID.TID 0000.0001)  Fields:    TRAC01   TRAC02   TRAC03   TRAC04   TRAC05   TRAC06   TRAC07   TRAC08   TRAC09   TRAC10
(PID.TID 0000.0001)  Fields:    TRAC11   TRAC12   TRAC13   TRAC14   TRAC15   TRAC16   TRAC17   TRAC18   TRAC19   TRAC20
(PID.TID 0000.0001)  Fields:    TRAC21   TRAC22   TRAC23   TRAC24   TRAC25   TRAC26   TRAC27   TRAC28   TRAC29   TRAC30
(PID.TID 0000.0001)  Fields:    TRAC31   TRAC32   TRAC33   TRAC34   TRAC35   TRAC36   PAR      PP       Nfix     Denit
(PID.TID 0000.0001)  Fields:    pH       pCO2     PC0001   PChl0001 VN0001   MODE0001 Fe_C0001 exQc0001 PCg0001  CChl0001
(PID.TID 0000.0001)  Fields:    NChl0001 NPho0001 NSyn0001 NPrn0001 NRNA0001 NDNA0001 NSTO0001 NEXC0001 PRNA0001 PDNA0001
(PID.TID 0000.0001)  Fields:    PTHY0001 PCON0001 PSTO0001 PEXC0001 FPHO0001 FSTO0001 FEXC0001 CChl0002 NChl0002 NPho0002
(PID.TID 0000.0001)  Fields:    NSyn0002 NPrn0002 NRNA0002 NDNA0002 NSTO0002 NEXC0002 PRNA0002 PDNA0002 PTHY0002 PCON0002
(PID.TID 0000.0001)  Fields:    PSTO0002 PEXC0002 FPHO0002 FSTO0002 FEXC0002 PC0002   PChl0002 VN0002   MODE0002 Fe_C0002
(PID.TID 0000.0001)  Fields:    exQc0002 PCg0002
(PID.TID 0000.0001) Creating Output Stream: GC
(PID.TID 0000.0001) Output Frequency:       3600.000000 ; Phase:           0.000000
(PID.TID 0000.0001)  Averaging Freq.:       3600.000000 , Phase:           0.000000 , Cycle:   1
(PID.TID 0000.0001)  missing value: -9.990000000000E+02 ; F-Flags="D       "
(PID.TID 0000.0001)  Levels:    will be set later
(PID.TID 0000.0001)  Fields:    GC_Tr01  GC_Tr02  GC_Tr03  GC_Tr04  GC_Tr05  GC_Tr06  GC_Tr07  GC_Tr08  GC_Tr09  GC_Tr10
(PID.TID 0000.0001)  Fields:    GC_Tr11  GC_Tr12  GC_Tr13  GC_Tr14  GC_Tr15  GC_Tr16  GC_Tr17  GC_Tr18  GC_Tr19  GC_Tr20
(PID.TID 0000.0001)  Fields:    GC_Tr21  GC_Tr22  GC_Tr23  GC_Tr24  GC_Tr25  GC_Tr26  GC_Tr27  GC_Tr28  GC_Tr29  GC_Tr30
(PID.TID 0000.0001)  Fields:    GC_Tr31  GC_Tr32  GC_Tr33  GC_Tr34  GC_Tr35  GC_Tr36
(PID.TID 0000.0001) Creating Output Stream: iops
(PID.TID 0000.0001) Output Frequency:    2592000.000000 ; Phase:           0.000000
(PID.TID 0000.0001)  Averaging Freq.:    2592000.000000 , Phase:           0.000000 , Cycle:   1
(PID.TID 0000.0001)  missing value: -9.990000000000E+02
(PID.TID 0000.0001)  Levels:    will be set later
(PID.TID 0000.0001)  Fields:    a001     a002     a003     a004     a005     a006     a007     a008     a009     a010
(PID.TID 0000.0001)  Fields:    a011     a012     a013     bt001    bt002    bt003    bt004    bt005    bt006    bt007
(PID.TID 0000.0001)  Fields:    bt008    bt009    bt010    bt011    bt012    bt013    bb001    bb002    bb003    bb004
(PID.TID 0000.0001)  Fields:    bb005    bb007    bb008    bb009    bb010    bb011    bb012    bb013    aCDOM001 aCDOM002
(PID.TID 0000.0001)  Fields:    aCDOM003 aCDOM004 aCDOM005 aCDOM006 aCDOM007 aCDOM008 aCDOM009 aCDOM010 aCDOM011 aCDOM012
(PID.TID 0000.0001)  Fields:    aCDOM013 bb006
(PID.TID 0000.0001) Creating Output Stream: par
(PID.TID 0000.0001) Output Frequency:    2592000.000000 ; Phase:           0.000000
(PID.TID 0000.0001)  Averaging Freq.:    2592000.000000 , Phase:           0.000000 , Cycle:   1
(PID.TID 0000.0001)  missing value: -9.990000000000E+02
(PID.TID 0000.0001)  Levels:    will be set later
(PID.TID 0000.0001)  Fields:    Ed001    Ed002    Ed003    Ed004    Ed005    Ed006    Ed007    Ed008    Ed009    Ed010
(PID.TID 0000.0001)  Fields:    Ed011    Ed012    Ed013    Es001    Es002    Es003    Es004    Es005    Es006    Es007
(PID.TID 0000.0001)  Fields:    Es008    Es009    Es010    Es011    Es012    Es013    Eu001    Eu002    Eu003    Eu004
(PID.TID 0000.0001)  Fields:    Eu005    Eu006    Eu007    Eu008    Eu009    Eu010    Eu011    Eu012    Eu013    PAR001
(PID.TID 0000.0001)  Fields:    PAR002   PAR003   PAR004   PAR005   PAR006   PAR007   PAR008   PAR009   PAR010   PAR011
(PID.TID 0000.0001)  Fields:    PAR012   PAR013
(PID.TID 0000.0001) Creating Output Stream: 2d
(PID.TID 0000.0001) Output Frequency:    2592000.000000 ; Phase:           0.000000
(PID.TID 0000.0001)  Averaging Freq.:    2592000.000000 , Phase:           0.000000 , Cycle:   1
(PID.TID 0000.0001)  missing value: -9.990000000000E+02
(PID.TID 0000.0001)  Levels:    will be set later
(PID.TID 0000.0001)  Fields:    fluxCO2  gDICsurf gALKsurf gO2surf
(PID.TID 0000.0001) -----------------------------------------------------
(PID.TID 0000.0001)  DIAGNOSTICS_READPARMS: statistics diags. summary:
(PID.TID 0000.0001) Creating Stats. Output Stream: statsPP
(PID.TID 0000.0001) Output Frequency:      10800.000000 ; Phase:           0.000000
(PID.TID 0000.0001)  Regions:   0
(PID.TID 0000.0001)  Fields:    PP
(PID.TID 0000.0001) Creating Stats. Output Stream: statsNfix
(PID.TID 0000.0001) Output Frequency:      10800.000000 ; Phase:           0.000000
(PID.TID 0000.0001)  Regions:   0
(PID.TID 0000.0001)  Fields:    Nfix
(PID.TID 0000.0001) Creating Stats. Output Stream: statsDenit
(PID.TID 0000.0001) Output Frequency:      10800.000000 ; Phase:           0.000000
(PID.TID 0000.0001)  Regions:   0
(PID.TID 0000.0001)  Fields:    Denit
(PID.TID 0000.0001) -----------------------------------------------------
(PID.TID 0000.0001) 
(PID.TID 0000.0001)  OFFLINE_RESET_PARMS: => turn off Temp,Salt & Mom_Stepping flags
(PID.TID 0000.0001) SET_PARMS: done
(PID.TID 0000.0001) Enter INI_VERTICAL_GRID: setInterFDr=    T ; setCenterDr=    F
(PID.TID 0000.0001) %MON XC_max                       =   3.5950000000000E+02
(PID.TID 0000.0001) %MON XC_min                       =   5.0000000000000E-01
(PID.TID 0000.0001) %MON XC_mean                      =   1.8000000000000E+02
(PID.TID 0000.0001) %MON XC_sd                        =   1.0392264751567E+02
(PID.TID 0000.0001) %MON XG_max                       =   3.5900000000000E+02
(PID.TID 0000.0001) %MON XG_min                       =   0.0000000000000E+00
(PID.TID 0000.0001) %MON XG_mean                      =   1.7950000000000E+02
(PID.TID 0000.0001) %MON XG_sd                        =   1.0392264751567E+02
(PID.TID 0000.0001) %MON DXC_max                      =   1.1117324005452E+05
(PID.TID 0000.0001) %MON DXC_min                      =   2.0260485279198E+04
(PID.TID 0000.0001) %MON DXC_mean                     =   7.8416312620425E+04
(PID.TID 0000.0001) %MON DXC_sd                       =   2.8072575688353E+04
(PID.TID 0000.0001) %MON DXF_max                      =   1.1117324005452E+05
(PID.TID 0000.0001) %MON DXF_min                      =   2.0260485279198E+04
(PID.TID 0000.0001) %MON DXF_mean                     =   7.8416312620425E+04
(PID.TID 0000.0001) %MON DXF_sd                       =   2.8072575688353E+04
(PID.TID 0000.0001) %MON DXG_max                      =   1.1117747335204E+05
(PID.TID 0000.0001) %MON DXG_min                      =   1.9305765645195E+04
(PID.TID 0000.0001) %MON DXG_mean                     =   7.8413326767521E+04
(PID.TID 0000.0001) %MON DXG_sd                       =   2.8078861897602E+04
(PID.TID 0000.0001) %MON DXV_max                      =   1.1117747335204E+05
(PID.TID 0000.0001) %MON DXV_min                      =   1.9305765645195E+04
(PID.TID 0000.0001) %MON DXV_mean                     =   7.8413326767521E+04
(PID.TID 0000.0001) %MON DXV_sd                       =   2.8078861897602E+04
(PID.TID 0000.0001) %MON YC_max                       =   7.9500000000000E+01
(PID.TID 0000.0001) %MON YC_min                       =  -7.9500000000000E+01
(PID.TID 0000.0001) %MON YC_mean                      =   0.0000000000000E+00
(PID.TID 0000.0001) %MON YC_sd                        =   4.6187119416565E+01
(PID.TID 0000.0001) %MON YG_max                       =   7.9000000000000E+01
(PID.TID 0000.0001) %MON YG_min                       =  -8.0000000000000E+01
(PID.TID 0000.0001) %MON YG_mean                      =  -5.0000000000000E-01
(PID.TID 0000.0001) %MON YG_sd                        =   4.6187119416565E+01
(PID.TID 0000.0001) %MON DYC_max                      =   1.1117747335204E+05
(PID.TID 0000.0001) %MON DYC_min                      =   1.1117747335204E+05
(PID.TID 0000.0001) %MON DYC_mean                     =   1.1117747335204E+05
(PID.TID 0000.0001) %MON DYC_sd                       =   5.8207660913467E-10
(PID.TID 0000.0001) %MON DYF_max                      =   1.1117747335204E+05
(PID.TID 0000.0001) %MON DYF_min                      =   1.1117747335204E+05
(PID.TID 0000.0001) %MON DYF_mean                     =   1.1117747335204E+05
(PID.TID 0000.0001) %MON DYF_sd                       =   5.8207660913467E-10
(PID.TID 0000.0001) %MON DYG_max                      =   1.1117747335204E+05
(PID.TID 0000.0001) %MON DYG_min                      =   1.1117747335204E+05
(PID.TID 0000.0001) %MON DYG_mean                     =   1.1117747335204E+05
(PID.TID 0000.0001) %MON DYG_sd                       =   5.8207660913467E-10
(PID.TID 0000.0001) %MON DYU_max                      =   1.1117747335204E+05
(PID.TID 0000.0001) %MON DYU_min                      =   1.1117747335204E+05
(PID.TID 0000.0001) %MON DYU_mean                     =   1.1117747335204E+05
(PID.TID 0000.0001) %MON DYU_sd                       =   5.8207660913467E-10
(PID.TID 0000.0001) %MON RA_max                       =   1.2359803056756E+10
(PID.TID 0000.0001) %MON RA_min                       =   2.2524809726008E+09
(PID.TID 0000.0001) %MON RA_mean                      =   8.7180168532476E+09
(PID.TID 0000.0001) %MON RA_sd                        =   3.1209984222261E+09
(PID.TID 0000.0001) %MON RAW_max                      =   1.2359803056756E+10
(PID.TID 0000.0001) %MON RAW_min                      =   2.2524809726008E+09
(PID.TID 0000.0001) %MON RAW_mean                     =   8.7180168532476E+09
(PID.TID 0000.0001) %MON RAW_sd                       =   3.1209984222261E+09
(PID.TID 0000.0001) %MON RAS_max                      =   1.2360273698104E+10
(PID.TID 0000.0001) %MON RAS_min                      =   2.1463390031403E+09
(PID.TID 0000.0001) %MON RAS_mean                     =   8.7176848978794E+09
(PID.TID 0000.0001) %MON RAS_sd                       =   3.1216972982169E+09
(PID.TID 0000.0001) %MON RAZ_max                      =   1.2360273698104E+10
(PID.TID 0000.0001) %MON RAZ_min                      =   2.1463390031403E+09
(PID.TID 0000.0001) %MON RAZ_mean                     =   8.7176848978794E+09
(PID.TID 0000.0001) %MON RAZ_sd                       =   3.1216972982169E+09
(PID.TID 0000.0001) %MON AngleCS_max                  =   1.0000000000000E+00
(PID.TID 0000.0001) %MON AngleCS_min                  =   1.0000000000000E+00
(PID.TID 0000.0001) %MON AngleCS_mean                 =   1.0000000000000E+00
(PID.TID 0000.0001) %MON AngleCS_sd                   =   0.0000000000000E+00
(PID.TID 0000.0001) %MON AngleSN_max                  =   0.0000000000000E+00
(PID.TID 0000.0001) %MON AngleSN_min                  =   0.0000000000000E+00
(PID.TID 0000.0001) %MON AngleSN_mean                 =   0.0000000000000E+00
(PID.TID 0000.0001) %MON AngleSN_sd                   =   0.0000000000000E+00
(PID.TID 0000.0001)  MDS_READ_FIELD: opening global file: input_ecco/bathy_fl.bin
(PID.TID 0000.0001) // =======================================================
(PID.TID 0000.0001) // Field Model R_low (ini_masks_etc)
(PID.TID 0000.0001) // CMIN =         -5.700000000000000E+03
(PID.TID 0000.0001) // CMAX =         -5.500000000000000E+01
(PID.TID 0000.0001) // CINT =          2.090740740740741E+02
(PID.TID 0000.0001) // SYMBOLS (CMIN->CMAX): -abcdefghijklmnopqrstuvwxyz+
(PID.TID 0000.0001) //                  0.0: .
(PID.TID 0000.0001) // RANGE I (Lo:Hi:Step):(    -3:    24:     1)
(PID.TID 0000.0001) // RANGE J (Lo:Hi:Step):(    24:    -3:    -1)
(PID.TID 0000.0001) // RANGE K (Lo:Hi:Step):(   1:   1:   1)
(PID.TID 0000.0001) // =======================================================
(PID.TID 0000.0001) K =   1
(PID.TID 0000.0001) //                I=6       I=16
(PID.TID 0000.0001) // |--J--|321012345|789012345|78901234
(PID.TID 0000.0001) //     24 ljjjjggjggeeebbbbbbbbbeegejj
(PID.TID 0000.0001) //     23 jjjgggggeeeebbb----bbbbeeebe
(PID.TID 0000.0001) //     22 eeeggeebbbbbebbb--bbbbbbbbbb
(PID.TID 0000.0001) //     21 bbbbbbbbbbbbbbbbbbbbbbbbbbbb
(PID.TID 0000.0001) //     20 bbbbbbbbbbbbbbbbbbbbbbbbbbbb
(PID.TID 0000.0001) //     19 bbbbbbbbbbbbbbbebbbbbbbbbbbb
(PID.TID 0000.0001) //     18 bbbbbbbbbbbbbbbbbbbbbbbbbbbb
(PID.TID 0000.0001) //     17 bbbbbbeeeeebbbbbbbbbbbbbbbbb
(PID.TID 0000.0001) //     16 bbbbgnqnnjeeebbeeeeeebbbbbbb
(PID.TID 0000.0001) //     15 eebglnnljggggggjllljgeeeeeee
(PID.TID 0000.0001) //     14 eeeejgjjgggggjjllljggeeeeeee
(PID.TID 0000.0001) //     13 ggeeeegjggggjlnqlljggggggggg
(PID.TID 0000.0001) //     12 jggggggjllllllnsqnllljjjjjjj
(PID.TID 0000.0001) //     11 nlnqsqqqqqsssquzzyxyxwssssnl
(PID.TID 0000.0001) //     10 z+zzz+..z++...++..........yy
(PID.TID 0000.0001) //      9 ............................
(PID.TID 0000.0001) //      8 ............................
(PID.TID 0000.0001) //      7 ............................
(PID.TID 0000.0001) //      6 ............................
(PID.TID 0000.0001) //      5 ............................
(PID.TID 0000.0001) //      4 ............................
(PID.TID 0000.0001) //      3 ............................
(PID.TID 0000.0001) //      2 ............................
(PID.TID 0000.0001) //      1 ............................
(PID.TID 0000.0001) //      0 sqnnnlllnquwyz+.............
(PID.TID 0000.0001) //     -1 snnnnnnnqqqquzz.............
(PID.TID 0000.0001) //     -2 qnllllllnnqqnsxzzz..........
(PID.TID 0000.0001) //     -3 ljlllllllnqnnqqsuxz+........
(PID.TID 0000.0001) // =======================================================
(PID.TID 0000.0001) // END OF FIELD                                          =
(PID.TID 0000.0001) // =======================================================
(PID.TID 0000.0001) 
(PID.TID 0000.0001) // =======================================================
(PID.TID 0000.0001) // Field Model Ro_surf (ini_masks_etc)
(PID.TID 0000.0001) // CMIN =          1.000000000000000E+32
(PID.TID 0000.0001) // CMAX =         -1.000000000000000E+32
(PID.TID 0000.0001) // CINT =          0.000000000000000E+00
(PID.TID 0000.0001) // SYMBOLS (CMIN->CMAX): -abcdefghijklmnopqrstuvwxyz+
(PID.TID 0000.0001) //                  0.0: .
(PID.TID 0000.0001) // RANGE I (Lo:Hi:Step):(    -3:    24:     1)
(PID.TID 0000.0001) // RANGE J (Lo:Hi:Step):(    24:    -3:    -1)
(PID.TID 0000.0001) // RANGE K (Lo:Hi:Step):(   1:   1:   1)
(PID.TID 0000.0001) // =======================================================
(PID.TID 0000.0001) // =======================================================
(PID.TID 0000.0001) // END OF FIELD                                          =
(PID.TID 0000.0001) // =======================================================
(PID.TID 0000.0001) 
(PID.TID 0000.0001) // =======================================================
(PID.TID 0000.0001) // Field hFacC at iteration          0
(PID.TID 0000.0001) // CMIN =          1.000000000000000E+00
(PID.TID 0000.0001) // CMAX =          1.000000000000000E+00
(PID.TID 0000.0001) // CINT =          0.000000000000000E+00
(PID.TID 0000.0001) // SYMBOLS (CMIN->CMAX): -abcdefghijklmnopqrstuvwxyz+
(PID.TID 0000.0001) //                  0.0: .
(PID.TID 0000.0001) // RANGE I (Lo:Hi:Step):(    -3:    24:     1)
(PID.TID 0000.0001) // RANGE J (Lo:Hi:Step):(    24:    -3:    -1)
(PID.TID 0000.0001) // RANGE K (Lo:Hi:Step):(   1:   1:   1)
(PID.TID 0000.0001) // =======================================================
(PID.TID 0000.0001) // =======================================================
(PID.TID 0000.0001) // END OF FIELD                                          =
(PID.TID 0000.0001) // =======================================================
(PID.TID 0000.0001) 
(PID.TID 0000.0001) // =======================================================
(PID.TID 0000.0001) // Field hFacW at iteration          0
(PID.TID 0000.0001) // CMIN =          1.000000000000000E+00
(PID.TID 0000.0001) // CMAX =          1.000000000000000E+00
(PID.TID 0000.0001) // CINT =          0.000000000000000E+00
(PID.TID 0000.0001) // SYMBOLS (CMIN->CMAX): -abcdefghijklmnopqrstuvwxyz+
(PID.TID 0000.0001) //                  0.0: .
(PID.TID 0000.0001) // RANGE I (Lo:Hi:Step):(    -3:    24:     1)
(PID.TID 0000.0001) // RANGE J (Lo:Hi:Step):(    24:    -3:    -1)
(PID.TID 0000.0001) // RANGE K (Lo:Hi:Step):(   1:   1:   1)
(PID.TID 0000.0001) // =======================================================
(PID.TID 0000.0001) // =======================================================
(PID.TID 0000.0001) // END OF FIELD                                          =
(PID.TID 0000.0001) // =======================================================
(PID.TID 0000.0001) 
(PID.TID 0000.0001) // =======================================================
(PID.TID 0000.0001) // Field hFacS at iteration          0
(PID.TID 0000.0001) // CMIN =          1.000000000000000E+00
(PID.TID 0000.0001) // CMAX =          1.000000000000000E+00
(PID.TID 0000.0001) // CINT =          0.000000000000000E+00
(PID.TID 0000.0001) // SYMBOLS (CMIN->CMAX): -abcdefghijklmnopqrstuvwxyz+
(PID.TID 0000.0001) //                  0.0: .
(PID.TID 0000.0001) // RANGE I (Lo:Hi:Step):(    -3:    24:     1)
(PID.TID 0000.0001) // RANGE J (Lo:Hi:Step):(    24:    -3:    -1)
(PID.TID 0000.0001) // RANGE K (Lo:Hi:Step):(   1:   1:   1)
(PID.TID 0000.0001) // =======================================================
(PID.TID 0000.0001) // =======================================================
(PID.TID 0000.0001) // END OF FIELD                                          =
(PID.TID 0000.0001) // =======================================================
(PID.TID 0000.0001) 
(PID.TID 0000.0001) 
(PID.TID 0000.0001) // =======================================================
(PID.TID 0000.0001) // Calendar configuration >>> START <<<
(PID.TID 0000.0001) // =======================================================
(PID.TID 0000.0001) 
(PID.TID 0000.0001) modelstart = /* Start time of the model integration [s] */
(PID.TID 0000.0001)                 0.000000000000000E+00
(PID.TID 0000.0001)     ;
(PID.TID 0000.0001) modelend  = /* End time of the model integration [s] */
(PID.TID 0000.0001)                 1.440000000000000E+04
(PID.TID 0000.0001)     ;
(PID.TID 0000.0001) modelStep = /* Time interval for a model forward step [s] */
(PID.TID 0000.0001)                 3.600000000000000E+03
(PID.TID 0000.0001)     ;
(PID.TID 0000.0001) usingGregorianCalendar= /* Calendar Type: Gregorian Calendar */
(PID.TID 0000.0001)                   F
(PID.TID 0000.0001)     ;
(PID.TID 0000.0001) usingJulianCalendar = /* Calendar Type: Julian Calendar */
(PID.TID 0000.0001)                   F
(PID.TID 0000.0001)     ;
(PID.TID 0000.0001) usingNoLeapYearCal  = /* Calendar Type: without Leap Year */
(PID.TID 0000.0001)                   F
(PID.TID 0000.0001)     ;
(PID.TID 0000.0001) usingModelCalendar  = /* Calendar Type: Model Calendar */
(PID.TID 0000.0001)                   T
(PID.TID 0000.0001)     ;
(PID.TID 0000.0001) modelStartDate YYYYMMDD = /* Model start date YYYY-MM-DD */
(PID.TID 0000.0001)                20000101
(PID.TID 0000.0001)     ;
(PID.TID 0000.0001)   modelStartDate HHMMSS = /* Model start date HH-MM-SS  */
(PID.TID 0000.0001)                       0
(PID.TID 0000.0001)     ;
(PID.TID 0000.0001) modelEndDate   YYYYMMDD = /* Model end date YYYY-MM-DD */
(PID.TID 0000.0001)                20000101
(PID.TID 0000.0001)     ;
(PID.TID 0000.0001)   modelEndDate   HHMMSS = /* Model end date HH-MM-SS  */
(PID.TID 0000.0001)                   40000
(PID.TID 0000.0001)     ;
(PID.TID 0000.0001) intyears = /* Number of calendar years affected by the integration */
(PID.TID 0000.0001)                       1
(PID.TID 0000.0001)     ;
(PID.TID 0000.0001) intmonths= /* Number of calendar months affected by the integration */
(PID.TID 0000.0001)                       1
(PID.TID 0000.0001)     ;
(PID.TID 0000.0001) intdays = /* Number of calendar days affected by the integration */
(PID.TID 0000.0001)                       1
(PID.TID 0000.0001)     ;
(PID.TID 0000.0001) modelIter0 = /* Base timestep number  */
(PID.TID 0000.0001)                       0
(PID.TID 0000.0001)     ;
(PID.TID 0000.0001) modelIterEnd = /* Final timestep number  */
(PID.TID 0000.0001)                       4
(PID.TID 0000.0001)     ;
(PID.TID 0000.0001) modelIntSteps= /* Number of model timesteps  */
(PID.TID 0000.0001)                       4
(PID.TID 0000.0001)     ;
(PID.TID 0000.0001) 
(PID.TID 0000.0001) // =======================================================
(PID.TID 0000.0001) // Calendar configuration  >>> END <<<
(PID.TID 0000.0001) // =======================================================
(PID.TID 0000.0001) 
(PID.TID 0000.0001) GAD_INIT_FIXED: GAD_OlMinSize=  0  0  1
(PID.TID 0000.0001) 
(PID.TID 0000.0001) // ===================================
(PID.TID 0000.0001) // GAD parameters :
[...]
 Computing Diagnostic #    993  aCDOM011     Counter:       4   Parms: SMRP    MR      
 Computing Diagnostic #   1005  aCDOM012     Counter:       4   Parms: SMRP    MR      
 Computing Diagnostic #   1017  aCDOM013     Counter:       4   Parms: SMRP    MR      
 Computing Diagnostic #    926  bb006        Counter:       4   Parms: SMRP    MR      
 Computing Diagnostic #    189  Ed001        Counter:       4   Parms: SMRP    LR      
 Computing Diagnostic #    195  Ed002        Counter:       4   Parms: SMRP    LR      
 Computing Diagnostic #    201  Ed003        Counter:       4   Parms: SMRP    LR      
 Computing Diagnostic #    207  Ed004        Counter:       4   Parms: SMRP    LR      
 Computing Diagnostic #    213  Ed005        Counter:       4   Parms: SMRP    LR      
 Computing Diagnostic #    219  Ed006        Counter:       4   Parms: SMRP    LR      
 Computing Diagnostic #    225  Ed007        Counter:       4   Parms: SMRP    LR      
 Computing Diagnostic #    231  Ed008        Counter:       4   Parms: SMRP    LR      
 Computing Diagnostic #    237  Ed009        Counter:       4   Parms: SMRP    LR      
 Computing Diagnostic #    243  Ed010        Counter:       4   Parms: SMRP    LR      
 Computing Diagnostic #    249  Ed011        Counter:       4   Parms: SMRP    LR      
 Computing Diagnostic #    255  Ed012        Counter:       4   Parms: SMRP    LR      
 Computing Diagnostic #    261  Ed013        Counter:       4   Parms: SMRP    LR      
 Computing Diagnostic #    190  Es001        Counter:       4   Parms: SMRP    LR      
 Computing Diagnostic #    196  Es002        Counter:       4   Parms: SMRP    LR      
 Computing Diagnostic #    202  Es003        Counter:       4   Parms: SMRP    LR      
 Computing Diagnostic #    208  Es004        Counter:       4   Parms: SMRP    LR      
 Computing Diagnostic #    214  Es005        Counter:       4   Parms: SMRP    LR      
 Computing Diagnostic #    220  Es006        Counter:       4   Parms: SMRP    LR      
 Computing Diagnostic #    226  Es007        Counter:       4   Parms: SMRP    LR      
 Computing Diagnostic #    232  Es008        Counter:       4   Parms: SMRP    LR      
 Computing Diagnostic #    238  Es009        Counter:       4   Parms: SMRP    LR      
 Computing Diagnostic #    244  Es010        Counter:       4   Parms: SMRP    LR      
 Computing Diagnostic #    250  Es011        Counter:       4   Parms: SMRP    LR      
 Computing Diagnostic #    256  Es012        Counter:       4   Parms: SMRP    LR      
 Computing Diagnostic #    262  Es013        Counter:       4   Parms: SMRP    LR      
 Computing Diagnostic #    191  Eu001        Counter:       4   Parms: SMRP    LR      
 Computing Diagnostic #    197  Eu002        Counter:       4   Parms: SMRP    LR      
 Computing Diagnostic #    203  Eu003        Counter:       4   Parms: SMRP    LR      
 Computing Diagnostic #    209  Eu004        Counter:       4   Parms: SMRP    LR      
 Computing Diagnostic #    215  Eu005        Counter:       4   Parms: SMRP    LR      
 Computing Diagnostic #    221  Eu006        Counter:       4   Parms: SMRP    LR      
 Computing Diagnostic #    227  Eu007        Counter:       4   Parms: SMRP    LR      
 Computing Diagnostic #    233  Eu008        Counter:       4   Parms: SMRP    LR      
 Computing Diagnostic #    239  Eu009        Counter:       4   Parms: SMRP    LR      
 Computing Diagnostic #    245  Eu010        Counter:       4   Parms: SMRP    LR      
 Computing Diagnostic #    251  Eu011        Counter:       4   Parms: SMRP    LR      
 Computing Diagnostic #    257  Eu012        Counter:       4   Parms: SMRP    LR      
 Computing Diagnostic #    263  Eu013        Counter:       4   Parms: SMRP    LR      
 Computing Diagnostic #    862  PAR001       Counter:       4   Parms: SMRP    MR      
 Computing Diagnostic #    874  PAR002       Counter:       4   Parms: SMRP    MR      
 Computing Diagnostic #    886  PAR003       Counter:       4   Parms: SMRP    MR      
 Computing Diagnostic #    898  PAR004       Counter:       4   Parms: SMRP    MR      
 Computing Diagnostic #    910  PAR005       Counter:       4   Parms: SMRP    MR      
 Computing Diagnostic #    922  PAR006       Counter:       4   Parms: SMRP    MR      
 Computing Diagnostic #    934  PAR007       Counter:       4   Parms: SMRP    MR      
 Computing Diagnostic #    946  PAR008       Counter:       4   Parms: SMRP    MR      
 Computing Diagnostic #    958  PAR009       Counter:       4   Parms: SMRP    MR      
 Computing Diagnostic #    970  PAR010       Counter:       4   Parms: SMRP    MR      
 Computing Diagnostic #    982  PAR011       Counter:       4   Parms: SMRP    MR      
 Computing Diagnostic #    994  PAR012       Counter:       4   Parms: SMRP    MR      
 Computing Diagnostic #   1006  PAR013       Counter:       4   Parms: SMRP    MR      
 Computing Diagnostic #   1150  fluxCO2      Counter:       4   Parms: SM      L1      
 Computing Diagnostic #   1154  gDICsurf     Counter:       4   Parms: SM      L1      
 Computing Diagnostic #   1155  gALKsurf     Counter:       4   Parms: SM      L1      
 Computing Diagnostic #   1156  gO2surf      Counter:       4   Parms: SM      L1      
 Compute Stats, Diag. #    810  PP        vol(   0 ): 1.326E+18  Parms: SMRP    MR      
 Compute Stats, Diag. #    811  Nfix      vol(   0 ): 1.326E+18  Parms: SMRP    MR      
 Compute Stats, Diag. #    812  Denit     vol(   0 ): 1.326E+18  Parms: SMRP    MR      
(PID.TID 0000.0001) DIAGSTATS_CLOSE_IO: close file: statsPP.0000000000.txt , unit=     9
(PID.TID 0000.0001) DIAGSTATS_CLOSE_IO: close file: statsNfix.0000000000.txt , unit=    10
(PID.TID 0000.0001) DIAGSTATS_CLOSE_IO: close file: statsDenit.0000000000.txt , unit=    16
(PID.TID 0000.0001) %CHECKPOINT         4 ckptA
(PID.TID 0000.0001)   Seconds in section "ALL                    [THE_MODEL_MAIN]":
(PID.TID 0000.0001)           User time:   34.9905073642731
(PID.TID 0000.0001)         System time:  0.000000000000000E+000
(PID.TID 0000.0001)     Wall clock time:   43.0355861186981
(PID.TID 0000.0001)          No. starts:           1
(PID.TID 0000.0001)           No. stops:           1
(PID.TID 0000.0001)   Seconds in section "INITIALISE_FIXED       [THE_MODEL_MAIN]":
(PID.TID 0000.0001)           User time:   6.56949895620346
(PID.TID 0000.0001)         System time:  0.000000000000000E+000
(PID.TID 0000.0001)     Wall clock time:   7.96265602111816
(PID.TID 0000.0001)          No. starts:           1
(PID.TID 0000.0001)           No. stops:           1
(PID.TID 0000.0001)   Seconds in section "THE_MAIN_LOOP          [THE_MODEL_MAIN]":
(PID.TID 0000.0001)           User time:   28.4188170433044
(PID.TID 0000.0001)         System time:  0.000000000000000E+000
(PID.TID 0000.0001)     Wall clock time:   34.9819989204407
(PID.TID 0000.0001)          No. starts:           1
(PID.TID 0000.0001)           No. stops:           1
(PID.TID 0000.0001)   Seconds in section "INITIALISE_VARIA    [THE_MAIN_LOOP]":
(PID.TID 0000.0001)           User time:   5.40936040878296
(PID.TID 0000.0001)         System time:  0.000000000000000E+000
(PID.TID 0000.0001)     Wall clock time:   7.62806010246277
(PID.TID 0000.0001)          No. starts:           1
(PID.TID 0000.0001)           No. stops:           1
(PID.TID 0000.0001)   Seconds in section "MAIN LOOP           [THE_MAIN_LOOP]":
(PID.TID 0000.0001)           User time:   23.0094385147095
(PID.TID 0000.0001)         System time:  0.000000000000000E+000
(PID.TID 0000.0001)     Wall clock time:   27.3539190292358
(PID.TID 0000.0001)          No. starts:           1
(PID.TID 0000.0001)           No. stops:           1
(PID.TID 0000.0001)   Seconds in section "MAIN_DO_LOOP        [THE_MAIN_LOOP]":
(PID.TID 0000.0001)           User time:   23.0094060897827
(PID.TID 0000.0001)         System time:  0.000000000000000E+000
(PID.TID 0000.0001)     Wall clock time:   27.3538818359375
(PID.TID 0000.0001)          No. starts:           4
(PID.TID 0000.0001)           No. stops:           4
(PID.TID 0000.0001)   Seconds in section "FORWARD_STEP        [MAIN_DO_LOOP]":
(PID.TID 0000.0001)           User time:   23.0092325210571
(PID.TID 0000.0001)         System time:  0.000000000000000E+000
(PID.TID 0000.0001)     Wall clock time:   27.3538150787354
(PID.TID 0000.0001)          No. starts:           4
(PID.TID 0000.0001)           No. stops:           4
(PID.TID 0000.0001)   Seconds in section "DO_STATEVARS_DIAGS  [FORWARD_STEP]":
(PID.TID 0000.0001)           User time:  3.100967407226562E-002
(PID.TID 0000.0001)         System time:  0.000000000000000E+000
(PID.TID 0000.0001)     Wall clock time:  3.117346763610840E-002
(PID.TID 0000.0001)          No. starts:           8
(PID.TID 0000.0001)           No. stops:           8
(PID.TID 0000.0001)   Seconds in section "LOAD_FIELDS_DRIVER  [FORWARD_STEP]":
(PID.TID 0000.0001)           User time:   1.91485881805420
(PID.TID 0000.0001)         System time:  0.000000000000000E+000
(PID.TID 0000.0001)     Wall clock time:   1.92577099800110
(PID.TID 0000.0001)          No. starts:           4
(PID.TID 0000.0001)           No. stops:           4
(PID.TID 0000.0001)   Seconds in section "EXF_GETFORCING     [LOAD_FLDS_DRIVER]":
(PID.TID 0000.0001)           User time:   1.75095653533936
(PID.TID 0000.0001)         System time:  0.000000000000000E+000
(PID.TID 0000.0001)     Wall clock time:   1.75090932846069
(PID.TID 0000.0001)          No. starts:           4
(PID.TID 0000.0001)           No. stops:           4
(PID.TID 0000.0001)   Seconds in section "EXTERNAL_FLDS_LOAD [LOAD_FLDS_DRIVER]":
(PID.TID 0000.0001)           User time:  1.637458801269531E-003
(PID.TID 0000.0001)         System time:  0.000000000000000E+000
(PID.TID 0000.0001)     Wall clock time:  1.813650131225586E-003
(PID.TID 0000.0001)          No. starts:           4
(PID.TID 0000.0001)           No. stops:           4
(PID.TID 0000.0001)   Seconds in section "DO_ATMOSPHERIC_PHYS [FORWARD_STEP]":
(PID.TID 0000.0001)           User time:  8.583068847656250E-006
(PID.TID 0000.0001)         System time:  0.000000000000000E+000
(PID.TID 0000.0001)     Wall clock time:  2.479553222656250E-005
(PID.TID 0000.0001)          No. starts:           4
(PID.TID 0000.0001)           No. stops:           4
(PID.TID 0000.0001)   Seconds in section "DO_OCEANIC_PHYS     [FORWARD_STEP]":
(PID.TID 0000.0001)           User time:  1.162433624267578E-002
(PID.TID 0000.0001)         System time:  0.000000000000000E+000
(PID.TID 0000.0001)     Wall clock time:  1.344108581542969E-002
(PID.TID 0000.0001)          No. starts:           4
(PID.TID 0000.0001)           No. stops:           4
(PID.TID 0000.0001)   Seconds in section "THERMODYNAMICS      [FORWARD_STEP]":
(PID.TID 0000.0001)           User time:   2.48663425445557
(PID.TID 0000.0001)         System time:  0.000000000000000E+000
(PID.TID 0000.0001)     Wall clock time:   2.48829913139343
(PID.TID 0000.0001)          No. starts:           4
(PID.TID 0000.0001)           No. stops:           4
(PID.TID 0000.0001)   Seconds in section "OFFLINE_FLDS_LOAD   [FORWARD_STEP]":
(PID.TID 0000.0001)           User time:  5.481719970703125E-003
(PID.TID 0000.0001)         System time:  0.000000000000000E+000
(PID.TID 0000.0001)     Wall clock time:  5.529880523681641E-003
(PID.TID 0000.0001)          No. starts:           4
(PID.TID 0000.0001)           No. stops:           4
(PID.TID 0000.0001)   Seconds in section "TRC_CORRECTION_STEP [FORWARD_STEP]":
(PID.TID 0000.0001)           User time:  8.583068847656250E-006
(PID.TID 0000.0001)         System time:  0.000000000000000E+000
(PID.TID 0000.0001)     Wall clock time:  2.598762512207031E-005
(PID.TID 0000.0001)          No. starts:           4
(PID.TID 0000.0001)           No. stops:           4
(PID.TID 0000.0001)   Seconds in section "GCHEM_FORCING_SEP  [FORWARD_STEP]":
(PID.TID 0000.0001)           User time:  0.948266029357910
(PID.TID 0000.0001)         System time:  0.000000000000000E+000
(PID.TID 0000.0001)     Wall clock time:   1.01092100143433
(PID.TID 0000.0001)          No. starts:           4
(PID.TID 0000.0001)           No. stops:           4
(PID.TID 0000.0001)   Seconds in section "DARWIN_FORCING [GCHEM_FORCING_SEP]":
(PID.TID 0000.0001)           User time:  0.531446456909180
(PID.TID 0000.0001)         System time:  0.000000000000000E+000
(PID.TID 0000.0001)     Wall clock time:  0.593005180358887
(PID.TID 0000.0001)          No. starts:           4
(PID.TID 0000.0001)           No. stops:           4
(PID.TID 0000.0001)   Seconds in section "DARWIN_LIGHT [DARWIN_FORCING]":
(PID.TID 0000.0001)           User time:  0.261388778686523
(PID.TID 0000.0001)         System time:  0.000000000000000E+000
(PID.TID 0000.0001)     Wall clock time:  0.295660972595215
(PID.TID 0000.0001)          No. starts:           4
(PID.TID 0000.0001)           No. stops:           4
(PID.TID 0000.0001)   Seconds in section "DARWIN_SURFFORCING [DARWIN_FORCING]":
(PID.TID 0000.0001)           User time:  1.879787445068359E-002
(PID.TID 0000.0001)         System time:  0.000000000000000E+000
(PID.TID 0000.0001)     Wall clock time:  1.885914802551270E-002
(PID.TID 0000.0001)          No. starts:           4
(PID.TID 0000.0001)           No. stops:           4
(PID.TID 0000.0001)   Seconds in section "DARWIN_FE_CHEM [DARWIN_FORCING]":
(PID.TID 0000.0001)           User time:  3.688812255859375E-003
(PID.TID 0000.0001)         System time:  0.000000000000000E+000
(PID.TID 0000.0001)     Wall clock time:  3.366947174072266E-003
(PID.TID 0000.0001)          No. starts:           8
(PID.TID 0000.0001)           No. stops:           8
(PID.TID 0000.0001)   Seconds in section "DARWIN_FE_SCAV [DARWIN_FORCING]":
(PID.TID 0000.0001)           User time:  2.385139465332031E-003
(PID.TID 0000.0001)         System time:  0.000000000000000E+000
(PID.TID 0000.0001)     Wall clock time:  2.430915832519531E-003
(PID.TID 0000.0001)          No. starts:           4
(PID.TID 0000.0001)           No. stops:           4
(PID.TID 0000.0001)   Seconds in section "DARWIN_FE_DUST [DARWIN_FORCING]":
(PID.TID 0000.0001)           User time:  1.907348632812500E-005
(PID.TID 0000.0001)         System time:  0.000000000000000E+000
(PID.TID 0000.0001)     Wall clock time:  5.412101745605469E-005
(PID.TID 0000.0001)          No. starts:           4
(PID.TID 0000.0001)           No. stops:           4
(PID.TID 0000.0001)   Seconds in section "DARWIN_FE_SED [DARWIN_FORCING]":
(PID.TID 0000.0001)           User time:  6.408691406250000E-004
(PID.TID 0000.0001)         System time:  0.000000000000000E+000
(PID.TID 0000.0001)     Wall clock time:  7.145404815673828E-004
(PID.TID 0000.0001)          No. starts:           4
(PID.TID 0000.0001)           No. stops:           4
(PID.TID 0000.0001)   Seconds in section "DARWIN_PLANKTON [DARWIN_FORCING]":
(PID.TID 0000.0001)           User time:  0.105565071105957
(PID.TID 0000.0001)         System time:  0.000000000000000E+000
(PID.TID 0000.0001)     Wall clock time:  0.105423212051392
(PID.TID 0000.0001)          No. starts:           4
(PID.TID 0000.0001)           No. stops:           4
(PID.TID 0000.0001)   Seconds in section "DIAGS_FILL [DARWIN_FORCING]":
(PID.TID 0000.0001)           User time:  5.634307861328125E-002
(PID.TID 0000.0001)         System time:  0.000000000000000E+000
(PID.TID 0000.0001)     Wall clock time:  5.663275718688965E-002
(PID.TID 0000.0001)          No. starts:           8
(PID.TID 0000.0001)           No. stops:           8
(PID.TID 0000.0001)   Seconds in section "DARWIN_SINKING [DARWIN_FORCING]":
(PID.TID 0000.0001)           User time:  1.866626739501953E-002
(PID.TID 0000.0001)         System time:  0.000000000000000E+000
(PID.TID 0000.0001)     Wall clock time:  1.830506324768066E-002
(PID.TID 0000.0001)          No. starts:           4
(PID.TID 0000.0001)           No. stops:           4
(PID.TID 0000.0001)   Seconds in section "DARWIN_STEP [DARWIN_FORCING]":
(PID.TID 0000.0001)           User time:  1.833057403564453E-002
(PID.TID 0000.0001)         System time:  0.000000000000000E+000
(PID.TID 0000.0001)     Wall clock time:  1.844096183776855E-002
(PID.TID 0000.0001)          No. starts:           4
(PID.TID 0000.0001)           No. stops:           4
(PID.TID 0000.0001)   Seconds in section "BLOCKING_EXCHANGES  [FORWARD_STEP]":
(PID.TID 0000.0001)           User time:  8.954048156738281E-002
(PID.TID 0000.0001)         System time:  0.000000000000000E+000
(PID.TID 0000.0001)     Wall clock time:  8.956193923950195E-002
(PID.TID 0000.0001)          No. starts:           4
(PID.TID 0000.0001)           No. stops:           4
(PID.TID 0000.0001)   Seconds in section "DO_STATEVARS_TAVE   [FORWARD_STEP]":
(PID.TID 0000.0001)           User time:  0.000000000000000E+000
(PID.TID 0000.0001)         System time:  0.000000000000000E+000
(PID.TID 0000.0001)     Wall clock time:  2.312660217285156E-005
(PID.TID 0000.0001)          No. starts:           4
(PID.TID 0000.0001)           No. stops:           4
(PID.TID 0000.0001)   Seconds in section "MONITOR             [FORWARD_STEP]":
(PID.TID 0000.0001)           User time:  4.026794433593750E-002
(PID.TID 0000.0001)         System time:  0.000000000000000E+000
(PID.TID 0000.0001)     Wall clock time:  4.012513160705566E-002
(PID.TID 0000.0001)          No. starts:           4
(PID.TID 0000.0001)           No. stops:           4
(PID.TID 0000.0001)   Seconds in section "DO_THE_MODEL_IO     [FORWARD_STEP]":
(PID.TID 0000.0001)           User time:   14.7657899856567
(PID.TID 0000.0001)         System time:  0.000000000000000E+000
(PID.TID 0000.0001)     Wall clock time:   17.1861829757690
(PID.TID 0000.0001)          No. starts:           4
(PID.TID 0000.0001)           No. stops:           4
(PID.TID 0000.0001)   Seconds in section "PTRACERS_RESET      [FORWARD_STEP]":
(PID.TID 0000.0001)           User time:  2.765655517578125E-005
(PID.TID 0000.0001)         System time:  0.000000000000000E+000
(PID.TID 0000.0001)     Wall clock time:  3.170967102050781E-005
(PID.TID 0000.0001)          No. starts:           4
(PID.TID 0000.0001)           No. stops:           4
(PID.TID 0000.0001)   Seconds in section "DO_WRITE_PICKUP     [FORWARD_STEP]":
(PID.TID 0000.0001)           User time:   2.68363952636719
(PID.TID 0000.0001)         System time:  0.000000000000000E+000
(PID.TID 0000.0001)     Wall clock time:   4.52834033966064
(PID.TID 0000.0001)          No. starts:           4
(PID.TID 0000.0001)           No. stops:           4
(PID.TID 0000.0001) // ======================================================
(PID.TID 0000.0001) // Tile <-> Tile communication statistics
(PID.TID 0000.0001) // ======================================================
(PID.TID 0000.0001) // o Tile number: 000001
(PID.TID 0000.0001) //         No. X exchanges =              0
(PID.TID 0000.0001) //            Max. X spins =              0
(PID.TID 0000.0001) //            Min. X spins =     1000000000
(PID.TID 0000.0001) //          Total. X spins =              0
(PID.TID 0000.0001) //            Avg. X spins =       0.00E+00
(PID.TID 0000.0001) //         No. Y exchanges =              0
(PID.TID 0000.0001) //            Max. Y spins =              0
(PID.TID 0000.0001) //            Min. Y spins =     1000000000
(PID.TID 0000.0001) //          Total. Y spins =              0
(PID.TID 0000.0001) //            Avg. Y spins =       0.00E+00
(PID.TID 0000.0001) // o Thread number: 000001
(PID.TID 0000.0001) //            No. barriers =          14968
(PID.TID 0000.0001) //      Max. barrier spins =              1
(PID.TID 0000.0001) //      Min. barrier spins =              1
(PID.TID 0000.0001) //     Total barrier spins =          14968
(PID.TID 0000.0001) //      Avg. barrier spins =       1.00E+00
PROGRAM MAIN: Execution ended Normally
