(PID.TID 0000.0001) 
(PID.TID 0000.0001) // ======================================================
(PID.TID 0000.0001) //                      MITgcm UV
(PID.TID 0000.0001) //                      =========
(PID.TID 0000.0001) // ======================================================
(PID.TID 0000.0001) // execution environment starting up...
(PID.TID 0000.0001) 
(PID.TID 0000.0001) // MITgcmUV version:  checkpoint67k
(PID.TID 0000.0001) // Build user:        jahn
(PID.TID 0000.0001) // Build host:        node623
(PID.TID 0000.0001) // Build date:        Thu Mar 30 09:37:47 EDT 2023
(PID.TID 0000.0001) 
(PID.TID 0000.0001) // =======================================================
(PID.TID 0000.0001) // Execution Environment parameter file "eedata"
(PID.TID 0000.0001) // =======================================================
(PID.TID 0000.0001) ># Example "eedata" file
(PID.TID 0000.0001) ># Lines beginning "#" are comments
(PID.TID 0000.0001) ># nTx - No. threads per process in X
(PID.TID 0000.0001) ># nTy - No. threads per process in Y
(PID.TID 0000.0001) > &EEPARMS
(PID.TID 0000.0001) > nTx=1,nTy=1
(PID.TID 0000.0001) > /
(PID.TID 0000.0001) ># Note: Some systems use & as the
(PID.TID 0000.0001) ># namelist terminator. Other systems
(PID.TID 0000.0001) ># use a / character (as shown here).
(PID.TID 0000.0001) 
(PID.TID 0000.0001) // =======================================================
(PID.TID 0000.0001) // Computational Grid Specification ( see files "SIZE.h" )
(PID.TID 0000.0001) //                                  ( and "eedata"       )
(PID.TID 0000.0001) // =======================================================
(PID.TID 0000.0001)      nPx =   18 ; /* No. processes in X */
(PID.TID 0000.0001)      nPy =    8 ; /* No. processes in Y */
(PID.TID 0000.0001)      nSx =    1 ; /* No. tiles in X per process */
(PID.TID 0000.0001)      nSy =    1 ; /* No. tiles in Y per process */
(PID.TID 0000.0001)      sNx =   20 ; /* Tile size in X */
(PID.TID 0000.0001)      sNy =   20 ; /* Tile size in Y */
(PID.TID 0000.0001)      OLx =    4 ; /* Tile overlap distance in X */
(PID.TID 0000.0001)      OLy =    4 ; /* Tile overlap distance in Y */
(PID.TID 0000.0001)      nTx =    1 ; /* No. threads in X per process */
(PID.TID 0000.0001)      nTy =    1 ; /* No. threads in Y per process */
(PID.TID 0000.0001)       Nr =   23 ; /* No. levels in the vertical   */
(PID.TID 0000.0001)       Nx =  360 ; /* Total domain size in X ( = nPx*nSx*sNx ) */
(PID.TID 0000.0001)       Ny =  160 ; /* Total domain size in Y ( = nPy*nSy*sNy ) */
(PID.TID 0000.0001)   nTiles =    1 ; /* Total no. tiles per process ( = nSx*nSy ) */
(PID.TID 0000.0001)   nProcs =  144 ; /* Total no. processes ( = nPx*nPy ) */
(PID.TID 0000.0001) nThreads =    1 ; /* Total no. threads per process ( = nTx*nTy ) */
(PID.TID 0000.0001) usingMPI =    T ; /* Flag used to control whether MPI is in use */
(PID.TID 0000.0001)                   /*  note: To execute a program with MPI calls */
(PID.TID 0000.0001)                   /*  it must be launched appropriately e.g     */
(PID.TID 0000.0001)                   /*  "mpirun -np 64 ......"                    */
(PID.TID 0000.0001) useCoupler=    F ;/* Flag used to control communications with   */
(PID.TID 0000.0001)                   /*  other model components, through a coupler */
(PID.TID 0000.0001) useNest2W_parent =    F ;/* Control 2-W Nesting comm */
(PID.TID 0000.0001) useNest2W_child  =    F ;/* Control 2-W Nesting comm */
(PID.TID 0000.0001) debugMode =    F ; /* print debug msg. (sequence of S/R calls)  */
(PID.TID 0000.0001) printMapIncludesZeros=    F ; /* print zeros in Std.Output maps */
(PID.TID 0000.0001) maxLengthPrt1D=   65 /* maxLength of 1D array printed to StdOut */
(PID.TID 0000.0001) 
(PID.TID 0000.0001) ======= Starting MPI parallel Run =========
(PID.TID 0000.0001)  My Processor Name (len:  7 ) = node623
(PID.TID 0000.0001)  Located at (  0,  0) on processor grid (0: 17,0:  7)
(PID.TID 0000.0001)  Origin at  (     1,     1) on global grid (1:   360,1:   160)
(PID.TID 0000.0001)  North neighbor = processor 0001
(PID.TID 0000.0001)  South neighbor = processor 0007
(PID.TID 0000.0001)   East neighbor = processor 0008
(PID.TID 0000.0001)   West neighbor = processor 0136
(PID.TID 0000.0001) // ======================================================
(PID.TID 0000.0001) // Mapping of tiles to threads
(PID.TID 0000.0001) // ======================================================
(PID.TID 0000.0001) // -o- Thread   1, tiles (   1:   1,   1:   1)
(PID.TID 0000.0001) 
(PID.TID 0000.0001) // ======================================================
(PID.TID 0000.0001) // Tile <-> Tile connectvity table
(PID.TID 0000.0001) // ======================================================
(PID.TID 0000.0001) // Tile number: 000001 (process no. = 000000)
(PID.TID 0000.0001) //        WEST: Tile = 000018, Process = 000136, Comm = messages
(PID.TID 0000.0001) //                bi = 000001, bj = 000001
(PID.TID 0000.0001) //        EAST: Tile = 000002, Process = 000008, Comm = messages
(PID.TID 0000.0001) //                bi = 000001, bj = 000001
(PID.TID 0000.0001) //       SOUTH: Tile = 000127, Process = 000007, Comm = messages
(PID.TID 0000.0001) //                bi = 000001, bj = 000001
(PID.TID 0000.0001) //       NORTH: Tile = 000019, Process = 000001, Comm = messages
(PID.TID 0000.0001) //                bi = 000001, bj = 000001
(PID.TID 0000.0001) 
(PID.TID 0000.0001)  INI_PARMS: opening model parameter file "data"
(PID.TID 0000.0001)  OPEN_COPY_DATA_FILE: opening file data
(PID.TID 0000.0001) // =======================================================
(PID.TID 0000.0001) // Removing comments from "data"
(PID.TID 0000.0001) // =======================================================
(PID.TID 0000.0001)    1 &PARM01
(PID.TID 0000.0001)    2 tRef= 24.0 , 23.0 , 22.0 , 21.0 , 20.0 ,
(PID.TID 0000.0001)    3       19.0 , 18.0 , 17.0 , 16.0 , 15.0 ,
(PID.TID 0000.0001)    4       14.0 , 13.0 , 12.0 , 11.0 , 10.0 ,
(PID.TID 0000.0001)    5        9.0 ,  8.0 ,  7.0 ,  6.0,   5.0 ,
(PID.TID 0000.0001)    6        4.0 ,  3.0 ,  2.0 ,
(PID.TID 0000.0001)    7 sRef= 34.65, 34.75, 34.82, 34.87, 34.90,
(PID.TID 0000.0001)    8       34.90, 34.86, 34.78, 34.69, 34.60,
(PID.TID 0000.0001)    9       34.58, 34.62, 34.68, 34.72, 34.73,
(PID.TID 0000.0001)   10       34.74, 34.73, 34.73, 34.72, 34.72,
(PID.TID 0000.0001)   11       34.71, 34.70, 34.69,
(PID.TID 0000.0001)   12 no_slip_sides=.false.,
(PID.TID 0000.0001)   13 no_slip_bottom=.TRUE.,
(PID.TID 0000.0001)   14 viscAz=1.E-3,
(PID.TID 0000.0001)   15 viscAh=1.E4,
(PID.TID 0000.0001)   16 diffKhT=1.E2,
(PID.TID 0000.0001)   17 diffKzT=1.E-5,
(PID.TID 0000.0001)   18 diffKhS=1.E2,
(PID.TID 0000.0001)   19 diffKzS=1.E-5,
(PID.TID 0000.0001)   20 beta=1.E-11,
(PID.TID 0000.0001)   21 tAlpha=2.E-4,
(PID.TID 0000.0001)   22 sBeta =7.4E-4,
(PID.TID 0000.0001)   23 gravity=9.81,
(PID.TID 0000.0001)   24 gBaro=9.81,
(PID.TID 0000.0001)   25 rigidLid=.FALSE.,
(PID.TID 0000.0001)   26 implicitFreeSurface=.true.,
(PID.TID 0000.0001)   27 eosType='POLY3',
(PID.TID 0000.0001)   28 saltStepping=.TRUE.,
(PID.TID 0000.0001)   29 tempStepping=.TRUE.,
(PID.TID 0000.0001)   30 momStepping=.TRUE.,
(PID.TID 0000.0001)   31 implicitDiffusion=.true.,
(PID.TID 0000.0001)   32 implicitViscosity=.true.,
(PID.TID 0000.0001)   33 allowFreezing=.false.,
(PID.TID 0000.0001)   34 useSingleCpuIO=.TRUE.,
(PID.TID 0000.0001)   35 useCDscheme=.FALSE.,
(PID.TID 0000.0001)   36 tempAdvScheme = 3,
(PID.TID 0000.0001)   37 saltAdvScheme = 3,
(PID.TID 0000.0001)   38 readBinaryPrec= 32,
(PID.TID 0000.0001)   39 writeBinaryPrec= 32,
(PID.TID 0000.0001)   40 /
(PID.TID 0000.0001)   41
(PID.TID 0000.0001)   42 &PARM02
(PID.TID 0000.0001)   43 cg2dMaxIters=300,
(PID.TID 0000.0001)   44 cg2dTargetResidual=1.E-7,
(PID.TID 0000.0001)   45 /
(PID.TID 0000.0001)   46
(PID.TID 0000.0001)   47 &PARM03
(PID.TID 0000.0001)   48  nIter0=0,
(PID.TID 0000.0001)   49  pickupSuff='0000025920',
(PID.TID 0000.0001)   50  nTimeSteps=4,
(PID.TID 0000.0001)   51  deltaTmom=3600.,
(PID.TID 0000.0001)   52  deltaTtracer=3600.,
(PID.TID 0000.0001)   53  deltaTClock =3600.,
(PID.TID 0000.0001)   54  abEps=0.1,
(PID.TID 0000.0001)   55  pChkptFreq  = 31104000.,
(PID.TID 0000.0001)   56  chkptFreq   = 31104000.,
(PID.TID 0000.0001)   57  dumpInitAndLast=.FALSE.,
(PID.TID 0000.0001)   58  monitorFreq = 1.,
(PID.TID 0000.0001)   59  tauThetaClimRelax=0.,
(PID.TID 0000.0001)   60  tauSaltClimRelax=0.,
(PID.TID 0000.0001)   61  periodicExternalForcing=.TRUE.,
(PID.TID 0000.0001)   62  externForcingPeriod=2592000.,
(PID.TID 0000.0001)   63  externForcingCycle=31104000.,
(PID.TID 0000.0001)   64 /
(PID.TID 0000.0001)   65
(PID.TID 0000.0001)   66 &PARM04
(PID.TID 0000.0001)   67 usingCartesianGrid=.FALSE.,
(PID.TID 0000.0001)   68 usingSphericalPolarGrid=.TRUE.,
(PID.TID 0000.0001)   69 delX=360*1.E0,
(PID.TID 0000.0001)   70 delY=160*1.E0,
(PID.TID 0000.0001)   71 delZ=10.,10.,15.,20.,20.,25.,35.,50.,75.,
(PID.TID 0000.0001)   72 100.,150.,200.,275.,350.,415.,450.,500.,
(PID.TID 0000.0001)   73 500.,500.,500.,500.,500.,500.,
(PID.TID 0000.0001)   74 xgOrigin=0,
(PID.TID 0000.0001)   75 ygOrigin=-80.,
(PID.TID 0000.0001)   76 /
(PID.TID 0000.0001)   77
(PID.TID 0000.0001)   78 &PARM05
(PID.TID 0000.0001)   79 bathyFile=       'input_ecco/bathy_fl.bin',
(PID.TID 0000.0001)   80 zonalWindFile=   '',
(PID.TID 0000.0001)   81 meridWindFile=   '',
(PID.TID 0000.0001)   82 thetaClimFile=   '',
(PID.TID 0000.0001)   83 saltClimFile=    '',
(PID.TID 0000.0001)   84 surfQFile=       '',
(PID.TID 0000.0001)   85 EmPmRFile=       '',
(PID.TID 0000.0001)   86 /
(PID.TID 0000.0001) // =======================================================
(PID.TID 0000.0001) // Parameter file "data"
(PID.TID 0000.0001) // =======================================================
(PID.TID 0000.0001) >#
(PID.TID 0000.0001) ># ******************************
(PID.TID 0000.0001) ># Model parameters
(PID.TID 0000.0001) ># Continuous equation parameters
(PID.TID 0000.0001) ># ******************************
(PID.TID 0000.0001) >&PARM01
(PID.TID 0000.0001) >tRef= 24.0 , 23.0 , 22.0 , 21.0 , 20.0 ,
(PID.TID 0000.0001) >      19.0 , 18.0 , 17.0 , 16.0 , 15.0 ,
(PID.TID 0000.0001) >      14.0 , 13.0 , 12.0 , 11.0 , 10.0 ,
(PID.TID 0000.0001) >       9.0 ,  8.0 ,  7.0 ,  6.0,   5.0 ,
(PID.TID 0000.0001) >       4.0 ,  3.0 ,  2.0 ,
(PID.TID 0000.0001) >sRef= 34.65, 34.75, 34.82, 34.87, 34.90,
(PID.TID 0000.0001) >      34.90, 34.86, 34.78, 34.69, 34.60,
(PID.TID 0000.0001) >      34.58, 34.62, 34.68, 34.72, 34.73,
(PID.TID 0000.0001) >      34.74, 34.73, 34.73, 34.72, 34.72,
(PID.TID 0000.0001) >      34.71, 34.70, 34.69,
(PID.TID 0000.0001) >no_slip_sides=.false.,
(PID.TID 0000.0001) >no_slip_bottom=.TRUE.,
(PID.TID 0000.0001) >viscAz=1.E-3,
(PID.TID 0000.0001) >viscAh=1.E4,
(PID.TID 0000.0001) >diffKhT=1.E2,
(PID.TID 0000.0001) >diffKzT=1.E-5,
(PID.TID 0000.0001) >diffKhS=1.E2,
(PID.TID 0000.0001) >diffKzS=1.E-5,
(PID.TID 0000.0001) >beta=1.E-11,
(PID.TID 0000.0001) >tAlpha=2.E-4,
(PID.TID 0000.0001) >sBeta =7.4E-4,
(PID.TID 0000.0001) >gravity=9.81,
(PID.TID 0000.0001) >gBaro=9.81,
(PID.TID 0000.0001) >rigidLid=.FALSE.,
(PID.TID 0000.0001) >implicitFreeSurface=.true.,
(PID.TID 0000.0001) >eosType='POLY3',
(PID.TID 0000.0001) >saltStepping=.TRUE.,
(PID.TID 0000.0001) >tempStepping=.TRUE.,
(PID.TID 0000.0001) >momStepping=.TRUE.,
(PID.TID 0000.0001) >implicitDiffusion=.true.,
(PID.TID 0000.0001) >implicitViscosity=.true.,
(PID.TID 0000.0001) >allowFreezing=.false.,
(PID.TID 0000.0001) >useSingleCpuIO=.TRUE.,
(PID.TID 0000.0001) >useCDscheme=.FALSE.,
(PID.TID 0000.0001) >tempAdvScheme = 3,
(PID.TID 0000.0001) >saltAdvScheme = 3,
(PID.TID 0000.0001) >readBinaryPrec= 32,
(PID.TID 0000.0001) >writeBinaryPrec= 32,
(PID.TID 0000.0001) >/
(PID.TID 0000.0001) >
(PID.TID 0000.0001) ># **************************
(PID.TID 0000.0001) ># Elliptic solver parameters
(PID.TID 0000.0001) ># **************************
(PID.TID 0000.0001) >&PARM02
(PID.TID 0000.0001) >cg2dMaxIters=300,
(PID.TID 0000.0001) >cg2dTargetResidual=1.E-7,
(PID.TID 0000.0001) >/
(PID.TID 0000.0001) >
(PID.TID 0000.0001) ># ************************
(PID.TID 0000.0001) ># Time stepping parameters
(PID.TID 0000.0001) ># ************************
(PID.TID 0000.0001) >&PARM03
(PID.TID 0000.0001) > nIter0=0,
(PID.TID 0000.0001) > pickupSuff='0000025920',
(PID.TID 0000.0001) ># nEndIter=25920,
(PID.TID 0000.0001) > nTimeSteps=4,
(PID.TID 0000.0001) > deltaTmom=3600.,
(PID.TID 0000.0001) > deltaTtracer=3600.,
(PID.TID 0000.0001) > deltaTClock =3600.,
(PID.TID 0000.0001) > abEps=0.1,
(PID.TID 0000.0001) > pChkptFreq  = 31104000.,
(PID.TID 0000.0001) > chkptFreq   = 31104000.,
(PID.TID 0000.0001) ># dumpFreq    = 31104000.,
(PID.TID 0000.0001) > dumpInitAndLast=.FALSE.,
(PID.TID 0000.0001) ># taveFreq    = 31104000.,
(PID.TID 0000.0001) >#taveFreq    = 2592000.,
(PID.TID 0000.0001) ># monitorFreq = 2592000.,
(PID.TID 0000.0001) >#monitorFreq = 86400.,
(PID.TID 0000.0001) ># monitorFreq = 31104000.,
(PID.TID 0000.0001) > monitorFreq = 1.,
(PID.TID 0000.0001) > tauThetaClimRelax=0.,
(PID.TID 0000.0001) > tauSaltClimRelax=0.,
(PID.TID 0000.0001) > periodicExternalForcing=.TRUE.,
(PID.TID 0000.0001) > externForcingPeriod=2592000.,
(PID.TID 0000.0001) > externForcingCycle=31104000.,
(PID.TID 0000.0001) >/
(PID.TID 0000.0001) >
(PID.TID 0000.0001) ># *******************
(PID.TID 0000.0001) ># Gridding parameters
(PID.TID 0000.0001) ># *******************
(PID.TID 0000.0001) >&PARM04
(PID.TID 0000.0001) >usingCartesianGrid=.FALSE.,
(PID.TID 0000.0001) >usingSphericalPolarGrid=.TRUE.,
(PID.TID 0000.0001) >delX=360*1.E0,
(PID.TID 0000.0001) >delY=160*1.E0,
(PID.TID 0000.0001) >delZ=10.,10.,15.,20.,20.,25.,35.,50.,75.,
(PID.TID 0000.0001) >100.,150.,200.,275.,350.,415.,450.,500.,
(PID.TID 0000.0001) >500.,500.,500.,500.,500.,500.,
(PID.TID 0000.0001) >xgOrigin=0,
(PID.TID 0000.0001) >ygOrigin=-80.,
(PID.TID 0000.0001) >/
(PID.TID 0000.0001) >
(PID.TID 0000.0001) ># **********
(PID.TID 0000.0001) ># Data Files
(PID.TID 0000.0001) ># **********
(PID.TID 0000.0001) >&PARM05
(PID.TID 0000.0001) >bathyFile=       'input_ecco/bathy_fl.bin',
(PID.TID 0000.0001) >zonalWindFile=   '',
(PID.TID 0000.0001) >meridWindFile=   '',
(PID.TID 0000.0001) >thetaClimFile=   '',
(PID.TID 0000.0001) >saltClimFile=    '',
(PID.TID 0000.0001) >surfQFile=       '',
(PID.TID 0000.0001) >EmPmRFile=       '',
(PID.TID 0000.0001) >/
(PID.TID 0000.0001) 
(PID.TID 0000.0001)  INI_PARMS ; starts to read PARM01
(PID.TID 0000.0001)  INI_PARMS ; read PARM01 : OK
(PID.TID 0000.0001)  INI_PARMS ; starts to read PARM02
(PID.TID 0000.0001)  INI_PARMS ; read PARM02 : OK
(PID.TID 0000.0001)  INI_PARMS ; starts to read PARM03
(PID.TID 0000.0001)  INI_PARMS ; read PARM03 : OK
(PID.TID 0000.0001)  INI_PARMS ; starts to read PARM04
(PID.TID 0000.0001)  INI_PARMS ; read PARM04 : OK
(PID.TID 0000.0001)  INI_PARMS ; starts to read PARM05
(PID.TID 0000.0001)  INI_PARMS ; read PARM05 : OK
(PID.TID 0000.0001)  INI_PARMS: finished reading file "data"
(PID.TID 0000.0001)  PACKAGES_BOOT: opening data.pkg
(PID.TID 0000.0001)  OPEN_COPY_DATA_FILE: opening file data.pkg
(PID.TID 0000.0001) // =======================================================
(PID.TID 0000.0001) // Removing comments from "data.pkg"
(PID.TID 0000.0001) // =======================================================
(PID.TID 0000.0001)    1  &PACKAGES
(PID.TID 0000.0001)    2  useGMRedi=.TRUE.
(PID.TID 0000.0001)    3  usePTRACERS=.TRUE.
(PID.TID 0000.0001)    4  useGCHEM=.TRUE.,
(PID.TID 0000.0001)    5  useKPP=.TRUE.,
(PID.TID 0000.0001)    6  useMNC=.TRUE.,
(PID.TID 0000.0001)    7  useEXF=.TRUE.,
(PID.TID 0000.0001)    8  useCAL=.TRUE.,
(PID.TID 0000.0001)    9  useOFFLINE=.TRUE.,
(PID.TID 0000.0001)   10  useDIAGNOSTICS=.TRUE.,
(PID.TID 0000.0001)   11  /
(PID.TID 0000.0001) // =======================================================
(PID.TID 0000.0001) // Parameter file "data.pkg"
(PID.TID 0000.0001) // =======================================================
(PID.TID 0000.0001) ># Packages
(PID.TID 0000.0001) > &PACKAGES
(PID.TID 0000.0001) > useGMRedi=.TRUE.
(PID.TID 0000.0001) > usePTRACERS=.TRUE.
(PID.TID 0000.0001) > useGCHEM=.TRUE.,
(PID.TID 0000.0001) > useKPP=.TRUE.,
(PID.TID 0000.0001) > useMNC=.TRUE.,
(PID.TID 0000.0001) > useEXF=.TRUE.,
(PID.TID 0000.0001) > useCAL=.TRUE.,
(PID.TID 0000.0001) > useOFFLINE=.TRUE.,
(PID.TID 0000.0001) > useDIAGNOSTICS=.TRUE.,
(PID.TID 0000.0001) > /
(PID.TID 0000.0001) 
(PID.TID 0000.0001)  PACKAGES_BOOT: finished reading data.pkg
(PID.TID 0000.0001)  PACKAGES_BOOT: On/Off package Summary
 --------  pkgs with a standard "usePKG" On/Off switch in "data.pkg":  --------
 pkg/kpp                  compiled   and   used ( useKPP                   = T )
 pkg/gmredi               compiled   and   used ( useGMRedi                = T )
 pkg/cal                  compiled   and   used ( useCAL                   = T )
 pkg/exf                  compiled   and   used ( useEXF                   = T )
 pkg/sbo                  compiled but not used ( useSBO                   = F )
 pkg/ptracers             compiled   and   used ( usePTRACERS              = T )
 pkg/gchem                compiled   and   used ( useGCHEM                 = T )
 pkg/offline              compiled   and   used ( useOffLine               = T )
 pkg/diagnostics          compiled   and   used ( useDiagnostics           = T )
 pkg/mnc                  compiled   and   used ( useMNC                   = T )
 -------- pkgs without standard "usePKG" On/Off switch in "data.pkg":  --------
 pkg/generic_advdiff      compiled   and   used ( useGAD                   = T )
 pkg/mom_common           compiled   and   used ( momStepping              = T )
 pkg/mom_vecinv           compiled but not used ( +vectorInvariantMomentum = F )
 pkg/mom_fluxform         compiled   and   used ( & not vectorInvariantMom = T )
 pkg/monitor              compiled   and   used ( monitorFreq > 0.         = T )
 pkg/timeave              compiled but not used ( taveFreq > 0.            = F )
 pkg/rw                   compiled   and   used
 pkg/mdsio                compiled   and   used
(PID.TID 0000.0001)  PACKAGES_BOOT: End of package Summary
(PID.TID 0000.0001) 
(PID.TID 0000.0001)  MNC_READPARMS: opening file 'data.mnc'
(PID.TID 0000.0001)  OPEN_COPY_DATA_FILE: opening file data.mnc
(PID.TID 0000.0001) // =======================================================
(PID.TID 0000.0001) // Removing comments from "data.mnc"
(PID.TID 0000.0001) // =======================================================
(PID.TID 0000.0001)    1  &MNC_01
(PID.TID 0000.0001)    2  mnc_use_outdir=.TRUE.,
(PID.TID 0000.0001)    3  mnc_outdir_str='mnc_test_',
(PID.TID 0000.0001)    4  monitor_mnc=.FALSE.,
(PID.TID 0000.0001)    5  snapshot_mnc=.TRUE.,
(PID.TID 0000.0001)    6  timeave_mnc=.TRUE.,
(PID.TID 0000.0001)    7  pickup_read_mnc=.FALSE.,
(PID.TID 0000.0001)    8  pickup_write_mnc=.FALSE.,
(PID.TID 0000.0001)    9  mnc_filefreq = 2592000.
(PID.TID 0000.0001)   10  mnc_max_fsize=1E12,
(PID.TID 0000.0001)   11  &
(PID.TID 0000.0001) // =======================================================
(PID.TID 0000.0001) // Parameter file "data.mnc"
(PID.TID 0000.0001) // =======================================================
(PID.TID 0000.0001) ># Example "data.mnc" file
(PID.TID 0000.0001) ># Lines beginning "#" are comments
(PID.TID 0000.0001) > &MNC_01
(PID.TID 0000.0001) ># mnc_echo_gvtypes=.FALSE.,
(PID.TID 0000.0001) ># mnc_use_indir=.FALSE.,
(PID.TID 0000.0001) > mnc_use_outdir=.TRUE.,
(PID.TID 0000.0001) > mnc_outdir_str='mnc_test_',
(PID.TID 0000.0001) ># mnc_outdir_date=.TRUE.,
(PID.TID 0000.0001) > monitor_mnc=.FALSE.,
(PID.TID 0000.0001) > snapshot_mnc=.TRUE.,
(PID.TID 0000.0001) > timeave_mnc=.TRUE.,
(PID.TID 0000.0001) > pickup_read_mnc=.FALSE.,
(PID.TID 0000.0001) > pickup_write_mnc=.FALSE.,
(PID.TID 0000.0001) > mnc_filefreq = 2592000.
(PID.TID 0000.0001) > mnc_max_fsize=1E12,
(PID.TID 0000.0001) > &
(PID.TID 0000.0001) ># Note: Some systems use & as the
(PID.TID 0000.0001) ># namelist terminator. Other systems
(PID.TID 0000.0001) ># use a / character.
(PID.TID 0000.0001) 
(PID.TID 0000.0001)  MNC_READPARMS: finished reading data.mnc
(PID.TID 0000.0001) CAL_READPARMS: opening data.cal
(PID.TID 0000.0001)  OPEN_COPY_DATA_FILE: opening file data.cal
(PID.TID 0000.0001) // =======================================================
(PID.TID 0000.0001) // Removing comments from "data.cal"
(PID.TID 0000.0001) // =======================================================
(PID.TID 0000.0001)    1  &CAL_NML
(PID.TID 0000.0001)    2  TheCalendar='model',
(PID.TID 0000.0001)    3  startDate_1=20000101,
(PID.TID 0000.0001)    4  startDate_2=000000,
(PID.TID 0000.0001)    5  calendarDumps = .TRUE.
(PID.TID 0000.0001)    6  &
(PID.TID 0000.0001) // =======================================================
(PID.TID 0000.0001) // Parameter file "data.cal"
(PID.TID 0000.0001) // =======================================================
(PID.TID 0000.0001) ># *******************
(PID.TID 0000.0001) ># Calendar Parameters
(PID.TID 0000.0001) ># *******************
(PID.TID 0000.0001) > &CAL_NML
(PID.TID 0000.0001) > TheCalendar='model',
(PID.TID 0000.0001) > startDate_1=20000101,
(PID.TID 0000.0001) > startDate_2=000000,
(PID.TID 0000.0001) > calendarDumps = .TRUE.
(PID.TID 0000.0001) > &
(PID.TID 0000.0001) 
(PID.TID 0000.0001) CAL_READPARMS: finished reading data.cal
(PID.TID 0000.0001) EXF_READPARMS: opening data.exf
(PID.TID 0000.0001)  OPEN_COPY_DATA_FILE: opening file data.exf
(PID.TID 0000.0001) // =======================================================
(PID.TID 0000.0001) // Removing comments from "data.exf"
(PID.TID 0000.0001) // =======================================================
(PID.TID 0000.0001)    1  &EXF_NML_01
(PID.TID 0000.0001)    2  exf_iprec         = 32,
(PID.TID 0000.0001)    3  exf_yftype        = 'RL',
(PID.TID 0000.0001)    4  useExfCheckRange  = .FALSE.,
(PID.TID 0000.0001)    5  repeatPeriod = 31104000.,
(PID.TID 0000.0001)    6  &
(PID.TID 0000.0001)    7  &EXF_NML_02
(PID.TID 0000.0001)    8  &
(PID.TID 0000.0001)    9  &EXF_NML_03
(PID.TID 0000.0001)   10  &
(PID.TID 0000.0001)   11  &EXF_NML_04
(PID.TID 0000.0001)   12  &
(PID.TID 0000.0001) // =======================================================
(PID.TID 0000.0001) // Parameter file "data.exf"
(PID.TID 0000.0001) // =======================================================
(PID.TID 0000.0001) ># *********************
(PID.TID 0000.0001) ># External Forcing Data
(PID.TID 0000.0001) ># *********************
(PID.TID 0000.0001) >#
(PID.TID 0000.0001) > &EXF_NML_01
(PID.TID 0000.0001) > exf_iprec         = 32,
(PID.TID 0000.0001) > exf_yftype        = 'RL',
(PID.TID 0000.0001) ># useExfYearlyFields= .TRUE.,
(PID.TID 0000.0001) ># twoDigitYear      = .TRUE.,
(PID.TID 0000.0001) > useExfCheckRange  = .FALSE.,
(PID.TID 0000.0001) > repeatPeriod = 31104000.,
(PID.TID 0000.0001) > &
(PID.TID 0000.0001) >#
(PID.TID 0000.0001) > &EXF_NML_02
(PID.TID 0000.0001) > &
(PID.TID 0000.0001) >#
(PID.TID 0000.0001) > &EXF_NML_03
(PID.TID 0000.0001) > &
(PID.TID 0000.0001) >#
(PID.TID 0000.0001) > &EXF_NML_04
(PID.TID 0000.0001) > &
(PID.TID 0000.0001) 
(PID.TID 0000.0001) EXF_READPARMS: reading EXF_NML_01
(PID.TID 0000.0001) EXF_READPARMS: reading EXF_NML_02
(PID.TID 0000.0001) EXF_READPARMS: reading EXF_NML_03
(PID.TID 0000.0001) EXF_READPARMS: finished reading data.exf
(PID.TID 0000.0001)  KPP_READPARMS: opening data.kpp
(PID.TID 0000.0001)  OPEN_COPY_DATA_FILE: opening file data.kpp
(PID.TID 0000.0001) // =======================================================
(PID.TID 0000.0001) // Removing comments from "data.kpp"
(PID.TID 0000.0001) // =======================================================
(PID.TID 0000.0001)    1  &KPP_PARM01
(PID.TID 0000.0001)    2  &
(PID.TID 0000.0001) // =======================================================
(PID.TID 0000.0001) // Parameter file "data.kpp"
(PID.TID 0000.0001) // =======================================================
(PID.TID 0000.0001) >#
(PID.TID 0000.0001) ># ***************
(PID.TID 0000.0001) ># Open boundaries
(PID.TID 0000.0001) ># ***************
(PID.TID 0000.0001) > &KPP_PARM01
(PID.TID 0000.0001) ># KPPwriteState   = .TRUE.,
(PID.TID 0000.0001) > &
(PID.TID 0000.0001) 
(PID.TID 0000.0001)  KPP_READPARMS ; starts to read KPP_PARM01
(PID.TID 0000.0001)  KPP_READPARMS ; read KPP_PARM01 : OK
(PID.TID 0000.0001)  KPP_READPARMS: finished reading data.kpp
(PID.TID 0000.0001)  GM_READPARMS: opening data.gmredi
(PID.TID 0000.0001)  OPEN_COPY_DATA_FILE: opening file data.gmredi
(PID.TID 0000.0001) // =======================================================
(PID.TID 0000.0001) // Removing comments from "data.gmredi"
(PID.TID 0000.0001) // =======================================================
(PID.TID 0000.0001)    1
(PID.TID 0000.0001)    2
(PID.TID 0000.0001)    3 (default=GM_background_K)
(PID.TID 0000.0001)    4 form)
(PID.TID 0000.0001)    5
(PID.TID 0000.0001)    6  &GM_PARM01
(PID.TID 0000.0001)    7   GM_Small_Number    = 1.D-20,
(PID.TID 0000.0001)    8   GM_slopeSqCutoff   = 1.D+08,
(PID.TID 0000.0001)    9   GM_AdvForm         = .FALSE.,
(PID.TID 0000.0001)   10   GM_isopycK         = 1.D+3,
(PID.TID 0000.0001)   11   GM_background_K    = 1.D+3,
(PID.TID 0000.0001)   12   GM_maxSlope        = 1.D-2,
(PID.TID 0000.0001)   13   GM_taper_scheme    = 'dm95',
(PID.TID 0000.0001)   14   GM_Kmin_horiz      = 50.,
(PID.TID 0000.0001)   15   GM_Scrit           = 4.D-3,
(PID.TID 0000.0001)   16   GM_Sd              = 1.D-3,
(PID.TID 0000.0001)   17  &
(PID.TID 0000.0001)   18
(PID.TID 0000.0001) // =======================================================
(PID.TID 0000.0001) // Parameter file "data.gmredi"
(PID.TID 0000.0001) // =======================================================
(PID.TID 0000.0001) ># GM+Redi package parameters:
(PID.TID 0000.0001) >#     GM_Small_Number  :: epsilon used in computing the slope
(PID.TID 0000.0001) >#     GM_slopeSqCutoff :: slope^2 cut-off value
(PID.TID 0000.0001) >
(PID.TID 0000.0001) >#-from MOM :
(PID.TID 0000.0001) ># GM_background_K:      G & Mc.W  diffusion coefficient
(PID.TID 0000.0001) ># GM_maxSlope    :      max slope of isopycnals
(PID.TID 0000.0001) ># GM_Scrit       :      transition for scaling diffusion coefficient
(PID.TID 0000.0001) ># GM_Sd          :      half width scaling for diffusion coefficient
(PID.TID 0000.0001) ># GM_taper_scheme:      slope clipping or one of the tapering schemes
(PID.TID 0000.0001) ># GM_Kmin_horiz  :      horizontal diffusion minimum value
(PID.TID 0000.0001) >
(PID.TID 0000.0001) >#-Option parameters (needs to "define" options in GMREDI_OPTIONS.h")
(PID.TID 0000.0001) ># GM_isopycK     :      isopycnal diffusion coefficient
(PID.TID 0000.0001) >(default=GM_background_K)
(PID.TID 0000.0001) ># GM_AdvForm     :      turn on GM Advective form       (default=Skew flux
(PID.TID 0000.0001) >form)
(PID.TID 0000.0001) >
(PID.TID 0000.0001) > &GM_PARM01
(PID.TID 0000.0001) >  GM_Small_Number    = 1.D-20,
(PID.TID 0000.0001) >  GM_slopeSqCutoff   = 1.D+08,
(PID.TID 0000.0001) >  GM_AdvForm         = .FALSE.,
(PID.TID 0000.0001) >  GM_isopycK         = 1.D+3,
(PID.TID 0000.0001) >  GM_background_K    = 1.D+3,
(PID.TID 0000.0001) >  GM_maxSlope        = 1.D-2,
(PID.TID 0000.0001) >  GM_taper_scheme    = 'dm95',
(PID.TID 0000.0001) >  GM_Kmin_horiz      = 50.,
(PID.TID 0000.0001) >  GM_Scrit           = 4.D-3,
(PID.TID 0000.0001) >  GM_Sd              = 1.D-3,
(PID.TID 0000.0001) >#
(PID.TID 0000.0001) >###  GM_Visbeck_alpha   = 1.5D-2,
(PID.TID 0000.0001) >###  GM_Visbeck_alpha   = 0.D0,
(PID.TID 0000.0001) >###  GM_Visbeck_length  = 2.D+5,
(PID.TID 0000.0001) >###  GM_Visbeck_depth   = 1.D+3,
(PID.TID 0000.0001) >###  GM_Visbeck_maxval_K= 2.5D+3,
(PID.TID 0000.0001) > &
(PID.TID 0000.0001) >
(PID.TID 0000.0001) 
(PID.TID 0000.0001)  GM_READPARMS: finished reading data.gmredi
(PID.TID 0000.0001)  PTRACERS_READPARMS: opening data.ptracers
(PID.TID 0000.0001)  OPEN_COPY_DATA_FILE: opening file data.ptracers
(PID.TID 0000.0001) // =======================================================
(PID.TID 0000.0001) // Removing comments from "data.ptracers"
(PID.TID 0000.0001) // =======================================================
(PID.TID 0000.0001)    1  &PTRACERS_PARM01
(PID.TID 0000.0001)    2  PTRACERS_numInUse= 36,
(PID.TID 0000.0001)    3  PTRACERS_Iter0= 0,
(PID.TID 0000.0001)    4  PTRACERS_advScheme=36*33,
(PID.TID 0000.0001)    5  PTRACERS_diffKh=36*0.E3,
(PID.TID 0000.0001)    6  PTRACERS_diffKr=36*1.E-5,
(PID.TID 0000.0001)    7  PTRACERS_useGMRedi=36*.TRUE.,
(PID.TID 0000.0001)    8  PTRACERS_useKPP=36*.TRUE.,
(PID.TID 0000.0001)    9        PTRACERS_names(1)= 'DIC',
(PID.TID 0000.0001)   10        PTRACERS_names(2)= 'NH4',
(PID.TID 0000.0001)   11        PTRACERS_names(3)= 'NO2',
(PID.TID 0000.0001)   12        PTRACERS_names(4)= 'NO3',
(PID.TID 0000.0001)   13        PTRACERS_names(5)= 'PO4',
(PID.TID 0000.0001)   14        PTRACERS_names(6)= 'SiO2',
(PID.TID 0000.0001)   15        PTRACERS_names(7)= 'FeT',
(PID.TID 0000.0001)   16        PTRACERS_names(8)= 'DOC',
(PID.TID 0000.0001)   17        PTRACERS_names(9)= 'DON',
(PID.TID 0000.0001)   18        PTRACERS_names(10)= 'DOP',
(PID.TID 0000.0001)   19        PTRACERS_names(11)= 'DOFe',
(PID.TID 0000.0001)   20        PTRACERS_names(12)= 'POC',
(PID.TID 0000.0001)   21        PTRACERS_names(13)= 'PON',
(PID.TID 0000.0001)   22        PTRACERS_names(14)= 'POP',
(PID.TID 0000.0001)   23        PTRACERS_names(15)= 'POSi',
(PID.TID 0000.0001)   24        PTRACERS_names(16)= 'POFe',
(PID.TID 0000.0001)   25        PTRACERS_names(17)= 'PIC',
(PID.TID 0000.0001)   26        PTRACERS_names(18)= 'ALK',
(PID.TID 0000.0001)   27        PTRACERS_names(19)= 'O2',
(PID.TID 0000.0001)   28        PTRACERS_names(20)= 'CDOM01',
(PID.TID 0000.0001)   29        PTRACERS_names(21)= 'c01',
(PID.TID 0000.0001)   30        PTRACERS_names(22)= 'c02',
(PID.TID 0000.0001)   31        PTRACERS_names(23)= 'c03',
(PID.TID 0000.0001)   32        PTRACERS_names(24)= 'c04',
(PID.TID 0000.0001)   33        PTRACERS_names(25)= 'n01',
(PID.TID 0000.0001)   34        PTRACERS_names(26)= 'n02',
(PID.TID 0000.0001)   35        PTRACERS_names(27)= 'n03',
(PID.TID 0000.0001)   36        PTRACERS_names(28)= 'n04',
(PID.TID 0000.0001)   37        PTRACERS_names(29)= 'p01',
(PID.TID 0000.0001)   38        PTRACERS_names(30)= 'p02',
(PID.TID 0000.0001)   39        PTRACERS_names(31)= 'p03',
(PID.TID 0000.0001)   40        PTRACERS_names(32)= 'p04',
(PID.TID 0000.0001)   41        PTRACERS_names(33)= 'fe01',
(PID.TID 0000.0001)   42        PTRACERS_names(34)= 'fe02',
(PID.TID 0000.0001)   43        PTRACERS_names(35)= 'fe03',
(PID.TID 0000.0001)   44        PTRACERS_names(36)= 'fe04',
(PID.TID 0000.0001)   45
(PID.TID 0000.0001)   46
(PID.TID 0000.0001)   47  PTRACERS_initialFile(1)='input_ecco/glodap_tco2_ann-3d.bin',
(PID.TID 0000.0001)   48  PTRACERS_initialFile(2)='DARWIN_ECCO_run17/nh4_y2000.data',
(PID.TID 0000.0001)   49  PTRACERS_initialFile(3)='DARWIN_ECCO_run17/no2_y2000.data',
(PID.TID 0000.0001)   50  PTRACERS_initialFile(4)='input_ecco/lev01_nitrate_ann-3d.bin',
(PID.TID 0000.0001)   51  PTRACERS_initialFile(5)='input_ecco/lev01_phosphate_ann-3d.bin',
(PID.TID 0000.0001)   52  PTRACERS_initialFile(6)='input_ecco/lev01_silicate_ann-3d.bin ',
(PID.TID 0000.0001)   53  PTRACERS_initialFile(7)='DARWIN_ECCO_run17/fet_y2000.data',
(PID.TID 0000.0001)   54  PTRACERS_initialFile(8)='DARWIN_ECCO_run17/doc_y2000.data',
(PID.TID 0000.0001)   55  PTRACERS_initialFile(9)='DARWIN_ECCO_run17/don_y2000.data',
(PID.TID 0000.0001)   56  PTRACERS_initialFile(10)='DARWIN_ECCO_run17/dop_y2000.data',
(PID.TID 0000.0001)   57  PTRACERS_initialFile(11)='DARWIN_ECCO_run17/dofe_y2000.data',
(PID.TID 0000.0001)   58  PTRACERS_initialFile(12)='DARWIN_ECCO_run17/poc_y2000.data',
(PID.TID 0000.0001)   59  PTRACERS_initialFile(13)='DARWIN_ECCO_run17/pon_y2000.data',
(PID.TID 0000.0001)   60  PTRACERS_initialFile(14)='DARWIN_ECCO_run17/pop_y2000.data',
(PID.TID 0000.0001)   61  PTRACERS_initialFile(15)='DARWIN_ECCO_run17/posi_y2000.data',
(PID.TID 0000.0001)   62  PTRACERS_initialFile(16)='DARWIN_ECCO_run17/pofe_y2000.data',
(PID.TID 0000.0001)   63  PTRACERS_initialFile(17)='DARWIN_ECCO_run17/pic_y2000.data',
(PID.TID 0000.0001)   64  PTRACERS_initialFile(18)='input_ecco/glodap_alk_ann-3d.bin',
(PID.TID 0000.0001)   65  PTRACERS_initialFile(19)='input_ecco/lev01_oxygen_ann-3d.bin',
(PID.TID 0000.0001)   66  PTRACERS_initialFile(20)='input_ecco/CDOM_run129abb4.bin',
(PID.TID 0000.0001)   67  PTRACERS_initialFile(21)='DARWIN_ECCO_run17/phy_6species_y2000.data',
(PID.TID 0000.0001)   68  PTRACERS_initialFile(22)='DARWIN_ECCO_run17/phy_6species_y2000.data',
(PID.TID 0000.0001)   69  PTRACERS_initialFile(23)='DARWIN_ECCO_run17/phy_6species_y2000.data',
(PID.TID 0000.0001)   70  PTRACERS_initialFile(24)='DARWIN_ECCO_run17/phy_6species_y2000.data',
(PID.TID 0000.0001)   71  PTRACERS_initialFile(25)='DARWIN_ECCO_run17/phy_6speciesn_y2000.data',
(PID.TID 0000.0001)   72  PTRACERS_initialFile(26)='DARWIN_ECCO_run17/phy_6speciesn_y2000.data',
(PID.TID 0000.0001)   73  PTRACERS_initialFile(27)='DARWIN_ECCO_run17/phy_6speciesn_y2000.data',
(PID.TID 0000.0001)   74  PTRACERS_initialFile(28)='DARWIN_ECCO_run17/phy_6speciesn_y2000.data',
(PID.TID 0000.0001)   75  PTRACERs_initialFile(29)='DARWIN_ECCO_run17/phy_6speciesp_y2000.data'
(PID.TID 0000.0001)   76  PTRACERs_initialFile(30)='DARWIN_ECCO_run17/phy_6speciesp_y2000.data'
(PID.TID 0000.0001)   77  PTRACERs_initialFile(31)='DARWIN_ECCO_run17/phy_6speciesp_y2000.data'
(PID.TID 0000.0001)   78  PTRACERs_initialFile(32)='DARWIN_ECCO_run17/phy_6speciesp_y2000.data'
(PID.TID 0000.0001)   79  PTRACERs_initialFile(33)='DARWIN_ECCO_run17/phy_6speciesfe_y2000.data'
(PID.TID 0000.0001)   80  PTRACERs_initialFile(34)='DARWIN_ECCO_run17/phy_6speciesfe_y2000.data'
(PID.TID 0000.0001)   81  PTRACERs_initialFile(35)='DARWIN_ECCO_run17/phy_6speciesfe_y2000.data'
(PID.TID 0000.0001)   82  PTRACERs_initialFile(36)='DARWIN_ECCO_run17/phy_6speciesfe_y2000.data'
(PID.TID 0000.0001)   83  &
(PID.TID 0000.0001) // =======================================================
(PID.TID 0000.0001) // Parameter file "data.ptracers"
(PID.TID 0000.0001) // =======================================================
(PID.TID 0000.0001) > &PTRACERS_PARM01
(PID.TID 0000.0001) > PTRACERS_numInUse= 36,
(PID.TID 0000.0001) > PTRACERS_Iter0= 0,
(PID.TID 0000.0001) >#
(PID.TID 0000.0001) > PTRACERS_advScheme=36*33,
(PID.TID 0000.0001) > PTRACERS_diffKh=36*0.E3,
(PID.TID 0000.0001) > PTRACERS_diffKr=36*1.E-5,
(PID.TID 0000.0001) > PTRACERS_useGMRedi=36*.TRUE.,
(PID.TID 0000.0001) > PTRACERS_useKPP=36*.TRUE.,
(PID.TID 0000.0001) >#
(PID.TID 0000.0001) >       PTRACERS_names(1)= 'DIC',
(PID.TID 0000.0001) >       PTRACERS_names(2)= 'NH4',
(PID.TID 0000.0001) >       PTRACERS_names(3)= 'NO2',
(PID.TID 0000.0001) >       PTRACERS_names(4)= 'NO3',
(PID.TID 0000.0001) >       PTRACERS_names(5)= 'PO4',
(PID.TID 0000.0001) >       PTRACERS_names(6)= 'SiO2',
(PID.TID 0000.0001) >       PTRACERS_names(7)= 'FeT',
(PID.TID 0000.0001) >       PTRACERS_names(8)= 'DOC',
(PID.TID 0000.0001) >       PTRACERS_names(9)= 'DON',
(PID.TID 0000.0001) >       PTRACERS_names(10)= 'DOP',
(PID.TID 0000.0001) >       PTRACERS_names(11)= 'DOFe',
(PID.TID 0000.0001) >       PTRACERS_names(12)= 'POC',
(PID.TID 0000.0001) >       PTRACERS_names(13)= 'PON',
(PID.TID 0000.0001) >       PTRACERS_names(14)= 'POP',
(PID.TID 0000.0001) >       PTRACERS_names(15)= 'POSi',
(PID.TID 0000.0001) >       PTRACERS_names(16)= 'POFe',
(PID.TID 0000.0001) >       PTRACERS_names(17)= 'PIC',
(PID.TID 0000.0001) >       PTRACERS_names(18)= 'ALK',
(PID.TID 0000.0001) >       PTRACERS_names(19)= 'O2',
(PID.TID 0000.0001) >       PTRACERS_names(20)= 'CDOM01',
(PID.TID 0000.0001) >       PTRACERS_names(21)= 'c01',
(PID.TID 0000.0001) >       PTRACERS_names(22)= 'c02',
(PID.TID 0000.0001) >       PTRACERS_names(23)= 'c03',
(PID.TID 0000.0001) >       PTRACERS_names(24)= 'c04',
(PID.TID 0000.0001) >       PTRACERS_names(25)= 'n01',
(PID.TID 0000.0001) >       PTRACERS_names(26)= 'n02',
(PID.TID 0000.0001) >       PTRACERS_names(27)= 'n03',
(PID.TID 0000.0001) >       PTRACERS_names(28)= 'n04',
(PID.TID 0000.0001) >       PTRACERS_names(29)= 'p01',
(PID.TID 0000.0001) >       PTRACERS_names(30)= 'p02',
(PID.TID 0000.0001) >       PTRACERS_names(31)= 'p03',
(PID.TID 0000.0001) >       PTRACERS_names(32)= 'p04',
(PID.TID 0000.0001) >       PTRACERS_names(33)= 'fe01',
(PID.TID 0000.0001) >       PTRACERS_names(34)= 'fe02',
(PID.TID 0000.0001) >       PTRACERS_names(35)= 'fe03',
(PID.TID 0000.0001) >       PTRACERS_names(36)= 'fe04',
(PID.TID 0000.0001) >
(PID.TID 0000.0001) >
(PID.TID 0000.0001) > PTRACERS_initialFile(1)='input_ecco/glodap_tco2_ann-3d.bin',
(PID.TID 0000.0001) > PTRACERS_initialFile(2)='DARWIN_ECCO_run17/nh4_y2000.data',
(PID.TID 0000.0001) > PTRACERS_initialFile(3)='DARWIN_ECCO_run17/no2_y2000.data',
(PID.TID 0000.0001) > PTRACERS_initialFile(4)='input_ecco/lev01_nitrate_ann-3d.bin',
(PID.TID 0000.0001) > PTRACERS_initialFile(5)='input_ecco/lev01_phosphate_ann-3d.bin',
(PID.TID 0000.0001) > PTRACERS_initialFile(6)='input_ecco/lev01_silicate_ann-3d.bin ',
(PID.TID 0000.0001) > PTRACERS_initialFile(7)='DARWIN_ECCO_run17/fet_y2000.data',
(PID.TID 0000.0001) > PTRACERS_initialFile(8)='DARWIN_ECCO_run17/doc_y2000.data',
(PID.TID 0000.0001) > PTRACERS_initialFile(9)='DARWIN_ECCO_run17/don_y2000.data',
(PID.TID 0000.0001) > PTRACERS_initialFile(10)='DARWIN_ECCO_run17/dop_y2000.data',
(PID.TID 0000.0001) > PTRACERS_initialFile(11)='DARWIN_ECCO_run17/dofe_y2000.data',
(PID.TID 0000.0001) > PTRACERS_initialFile(12)='DARWIN_ECCO_run17/poc_y2000.data',
(PID.TID 0000.0001) > PTRACERS_initialFile(13)='DARWIN_ECCO_run17/pon_y2000.data',
(PID.TID 0000.0001) > PTRACERS_initialFile(14)='DARWIN_ECCO_run17/pop_y2000.data',
(PID.TID 0000.0001) > PTRACERS_initialFile(15)='DARWIN_ECCO_run17/posi_y2000.data',
(PID.TID 0000.0001) > PTRACERS_initialFile(16)='DARWIN_ECCO_run17/pofe_y2000.data',
(PID.TID 0000.0001) > PTRACERS_initialFile(17)='DARWIN_ECCO_run17/pic_y2000.data',
(PID.TID 0000.0001) > PTRACERS_initialFile(18)='input_ecco/glodap_alk_ann-3d.bin',
(PID.TID 0000.0001) > PTRACERS_initialFile(19)='input_ecco/lev01_oxygen_ann-3d.bin',
(PID.TID 0000.0001) > PTRACERS_initialFile(20)='input_ecco/CDOM_run129abb4.bin',
(PID.TID 0000.0001) > PTRACERS_initialFile(21)='DARWIN_ECCO_run17/phy_6species_y2000.data',
(PID.TID 0000.0001) > PTRACERS_initialFile(22)='DARWIN_ECCO_run17/phy_6species_y2000.data',
(PID.TID 0000.0001) > PTRACERS_initialFile(23)='DARWIN_ECCO_run17/phy_6species_y2000.data',
(PID.TID 0000.0001) > PTRACERS_initialFile(24)='DARWIN_ECCO_run17/phy_6species_y2000.data',
(PID.TID 0000.0001) > PTRACERS_initialFile(25)='DARWIN_ECCO_run17/phy_6speciesn_y2000.data',
(PID.TID 0000.0001) > PTRACERS_initialFile(26)='DARWIN_ECCO_run17/phy_6speciesn_y2000.data',
(PID.TID 0000.0001) > PTRACERS_initialFile(27)='DARWIN_ECCO_run17/phy_6speciesn_y2000.data',
(PID.TID 0000.0001) > PTRACERS_initialFile(28)='DARWIN_ECCO_run17/phy_6speciesn_y2000.data',
(PID.TID 0000.0001) > PTRACERs_initialFile(29)='DARWIN_ECCO_run17/phy_6speciesp_y2000.data'
(PID.TID 0000.0001) > PTRACERs_initialFile(30)='DARWIN_ECCO_run17/phy_6speciesp_y2000.data'
(PID.TID 0000.0001) > PTRACERs_initialFile(31)='DARWIN_ECCO_run17/phy_6speciesp_y2000.data'
(PID.TID 0000.0001) > PTRACERs_initialFile(32)='DARWIN_ECCO_run17/phy_6speciesp_y2000.data'
(PID.TID 0000.0001) > PTRACERs_initialFile(33)='DARWIN_ECCO_run17/phy_6speciesfe_y2000.data'
(PID.TID 0000.0001) > PTRACERs_initialFile(34)='DARWIN_ECCO_run17/phy_6speciesfe_y2000.data'
(PID.TID 0000.0001) > PTRACERs_initialFile(35)='DARWIN_ECCO_run17/phy_6speciesfe_y2000.data'
(PID.TID 0000.0001) > PTRACERs_initialFile(36)='DARWIN_ECCO_run17/phy_6speciesfe_y2000.data'
(PID.TID 0000.0001) > &
(PID.TID 0000.0001) 
(PID.TID 0000.0001)  PTRACERS_READPARMS: finished reading data.ptracers
(PID.TID 0000.0001)  GCHEM_READPARMS: opening data.gchem
(PID.TID 0000.0001)  OPEN_COPY_DATA_FILE: opening file data.gchem
(PID.TID 0000.0001) // =======================================================
(PID.TID 0000.0001) // Removing comments from "data.gchem"
(PID.TID 0000.0001) // =======================================================
(PID.TID 0000.0001)    1  &GCHEM_PARM01
(PID.TID 0000.0001)    2   useGUD=.TRUE.,
(PID.TID 0000.0001)    3   nsubtime=1,
(PID.TID 0000.0001)    4  /
(PID.TID 0000.0001) // =======================================================
(PID.TID 0000.0001) // Parameter file "data.gchem"
(PID.TID 0000.0001) // =======================================================
(PID.TID 0000.0001) > &GCHEM_PARM01
(PID.TID 0000.0001) >  useGUD=.TRUE.,
(PID.TID 0000.0001) >  nsubtime=1,
(PID.TID 0000.0001) > /
(PID.TID 0000.0001) 
(PID.TID 0000.0001)  GCHEM_READPARMS: finished reading data.gchem
(PID.TID 0000.0001)  GUD_READPARMS: opening data.gud
(PID.TID 0000.0001)  OPEN_COPY_DATA_FILE: opening file data.gud
(PID.TID 0000.0001) // =======================================================
(PID.TID 0000.0001) // Removing comments from "data.gud"
(PID.TID 0000.0001) // =======================================================
(PID.TID 0000.0001)    1  &GUD_FORCING_PARAMS
(PID.TID 0000.0001)    2  ironFile='input_ecco/mahowald2009_solubile_current_smooth_oce_mth-2d.bin',
(PID.TID 0000.0001)    3  ironPeriod= -12.,
(PID.TID 0000.0001)    4  gud_inscal_iron= 2000.,
(PID.TID 0000.0001)    5  OASIM_EdFile( 1)='input_ecco/ecco_oasim_edp01_below.bin',
(PID.TID 0000.0001)    6  OASIM_EdFile( 2)='input_ecco/ecco_oasim_edp02_below.bin',
(PID.TID 0000.0001)    7  OASIM_EdFile( 3)='input_ecco/ecco_oasim_edp03_below.bin',
(PID.TID 0000.0001)    8  OASIM_EdFile( 4)='input_ecco/ecco_oasim_edp04_below.bin',
(PID.TID 0000.0001)    9  OASIM_EdFile( 5)='input_ecco/ecco_oasim_edp05_below.bin',
(PID.TID 0000.0001)   10  OASIM_EdFile( 6)='input_ecco/ecco_oasim_edp06_below.bin',
(PID.TID 0000.0001)   11  OASIM_EdFile( 7)='input_ecco/ecco_oasim_edp07_below.bin',
(PID.TID 0000.0001)   12  OASIM_EdFile( 8)='input_ecco/ecco_oasim_edp08_below.bin',
(PID.TID 0000.0001)   13  OASIM_EdFile( 9)='input_ecco/ecco_oasim_edp09_below.bin',
(PID.TID 0000.0001)   14  OASIM_EdFile(10)='input_ecco/ecco_oasim_edp10_below.bin',
(PID.TID 0000.0001)   15  OASIM_EdFile(11)='input_ecco/ecco_oasim_edp11_below.bin',
(PID.TID 0000.0001)   16  OASIM_EdFile(12)='input_ecco/ecco_oasim_edp12_below.bin',
(PID.TID 0000.0001)   17  OASIM_EdFile(13)='input_ecco/ecco_oasim_edp13_below.bin',
(PID.TID 0000.0001)   18  OASIM_EsFile( 1)='input_ecco/ecco_oasim_esp01_below.bin',
(PID.TID 0000.0001)   19  OASIM_EsFile( 2)='input_ecco/ecco_oasim_esp02_below.bin',
(PID.TID 0000.0001)   20  OASIM_EsFile( 3)='input_ecco/ecco_oasim_esp03_below.bin',
(PID.TID 0000.0001)   21  OASIM_EsFile( 4)='input_ecco/ecco_oasim_esp04_below.bin',
(PID.TID 0000.0001)   22  OASIM_EsFile( 5)='input_ecco/ecco_oasim_esp05_below.bin',
(PID.TID 0000.0001)   23  OASIM_EsFile( 6)='input_ecco/ecco_oasim_esp06_below.bin',
(PID.TID 0000.0001)   24  OASIM_EsFile( 7)='input_ecco/ecco_oasim_esp07_below.bin',
(PID.TID 0000.0001)   25  OASIM_EsFile( 8)='input_ecco/ecco_oasim_esp08_below.bin',
(PID.TID 0000.0001)   26  OASIM_EsFile( 9)='input_ecco/ecco_oasim_esp09_below.bin',
(PID.TID 0000.0001)   27  OASIM_EsFile(10)='input_ecco/ecco_oasim_esp10_below.bin',
(PID.TID 0000.0001)   28  OASIM_EsFile(11)='input_ecco/ecco_oasim_esp11_below.bin',
(PID.TID 0000.0001)   29  OASIM_EsFile(12)='input_ecco/ecco_oasim_esp12_below.bin',
(PID.TID 0000.0001)   30  OASIM_EsFile(13)='input_ecco/ecco_oasim_esp13_below.bin',
(PID.TID 0000.0001)   31  OASIMPeriod= -12.,
(PID.TID 0000.0001)   32  windFile='input_ecco/tren_speed_mth-2d.bin',
(PID.TID 0000.0001)   33  windPeriod= -12.,
(PID.TID 0000.0001)   34  icefile = 'eccov3/SIarea.bin',
(PID.TID 0000.0001)   35  icestartdate1 = 19990101,
(PID.TID 0000.0001)   36  icestartdate2 = 120000,
(PID.TID 0000.0001)   37  iceperiod     = 86400.0,
(PID.TID 0000.0001)   38  /
(PID.TID 0000.0001)   39  &GUD_PARAMS
(PID.TID 0000.0001)   40  diaz_ini_fac= 0.1,
(PID.TID 0000.0001)   41  idebug=271,
(PID.TID 0000.0001)   42  jdebug=63,
(PID.TID 0000.0001)   43  gud_seed= 56,
(PID.TID 0000.0001)   44  gud_read_phos= F,
(PID.TID 0000.0001)   45  tempCoeffArr= 0.8,
(PID.TID 0000.0001)   46  PARmin= 0.1,
(PID.TID 0000.0001)   47  alpfe= 1.0,
(PID.TID 0000.0001)   48  freefemax = .1E-3,
(PID.TID 0000.0001)   49  depthfesed= 7000.,
(PID.TID 0000.0001)   50  scav_rat= 1.73611111111111111111E-7,
(PID.TID 0000.0001)   51  kdoc=  3.8580246913580247E-7,  ! 1/30day
(PID.TID 0000.0001)   52  kdop=  3.8580246913580247E-7,  ! 1/30day
(PID.TID 0000.0001)   53  kdon=  3.8580246913580247E-7,  ! 1/30day
(PID.TID 0000.0001)   54  kdofe= 3.8580246913580247E-7,  ! 1/30day
(PID.TID 0000.0001)   55  kPOC=  3.8580246913580247E-7,  ! 1/30day
(PID.TID 0000.0001)   56  kPOP=  3.8580246913580247E-7,  ! 1/30day
(PID.TID 0000.0001)   57  kPON=  3.8580246913580247E-7,  ! 1/30day
(PID.TID 0000.0001)   58  kPOFe= 3.8580246913580247E-7,  ! 1/30day
(PID.TID 0000.0001)   59  kPOSi= 7.7160493827160493E-8,  ! 1/150day
(PID.TID 0000.0001)   60  phygrazmin= 120E-10,
(PID.TID 0000.0001)   61  hollexp = 2.E0,
(PID.TID 0000.0001)   62  hillnum = 0.01,
(PID.TID 0000.0001)   63  gud_atmos_pCO2= 278E-6,
(PID.TID 0000.0001)   64  /
(PID.TID 0000.0001)   65  &GUD_RADTRANS_PARAMS
(PID.TID 0000.0001)   66  gud_selectSolz = 1,
(PID.TID 0000.0001)   67  gud_waterabsorbFile='OPTICS_COEFF/optics_water_Aug2014_bandave25.txt',
(PID.TID 0000.0001)   68  gud_phytoabsorbFile='OPTICS_COEFF/optics_phyto_10_bandave25_newsize5_diffsyn_zoo.txt',
(PID.TID 0000.0001)   69  gud_particleabsorbFile='OPTICS_COEFF/optics_detritus_8_sameas4_bandave25.txt',
(PID.TID 0000.0001)   70  gud_radtrans_kmax=22,
(PID.TID 0000.0001)   71  gud_waveband_edges=400,412.5,437.5,462.5,487.5,512.5,537.5,562.5,587.5,612.5,637.5,662.5,687.5,700,
(PID.TID 0000.0001)   72  gud_waveband_centers=400,425,450,475,500,525,550,575,600,625,650,675,700,
(PID.TID 0000.0001)   73  gud_Sdom=0.0145000,
(PID.TID 0000.0001)   74  gud_aCDOM_fac = 0.30,
(PID.TID 0000.0001)   75  gud_part_size_P = 1.e-17,
(PID.TID 0000.0001)   76  gud_allomSpectra= T,
(PID.TID 0000.0001)   77  gud_absorpSlope= -0.075,
(PID.TID 0000.0001)   78  gud_bbbSlope=    -1.458,
(PID.TID 0000.0001)   79  gud_scatSwitchSizeLog= 2.860959e-01, 2.923177e-01, 2.983251e-01, 3.140574e-01, 3.261153e-01,
(PID.TID 0000.0001)   80                         3.440134e-01, 3.577670e-01, 3.618763e-01, 3.695100e-01, 3.718916e-01,
(PID.TID 0000.0001)   81                         3.706202e-01, 3.640583e-01, 3.682107e-01,
(PID.TID 0000.0001)   82  gud_scatSlopeSmall= 4.185404e+00, 4.208007e+00, 4.261307e+00, 4.302451e+00, 4.341968e+00,
(PID.TID 0000.0001)   83                      4.373109e+00, 4.392320e+00, 4.416705e+00, 4.434653e+00, 4.454953e+00,
(PID.TID 0000.0001)   84                      4.479809e+00, 4.507577e+00, 4.544071e+00,
(PID.TID 0000.0001)   85  gud_scatSlopeLarge= 1.723153e+00, 1.718186e+00, 1.699666e+00, 1.687533e+00, 1.710736e+00,
(PID.TID 0000.0001)   86                      1.732242e+00, 1.763117e+00, 1.811451e+00, 1.834619e+00, 1.863836e+00,
(PID.TID 0000.0001)   87                      1.897289e+00, 1.861866e+00, 1.907367e+00,
(PID.TID 0000.0001)   88  /
(PID.TID 0000.0001)   89
(PID.TID 0000.0001)   90  &GUD_CDOM_PARAMS
(PID.TID 0000.0001)   91   fracCDOM = 0.02,
(PID.TID 0000.0001)   92   cdomdegrd= 3.8580e-08,
(PID.TID 0000.0001)   93   CDOMbleach = 3.0000e-06,
(PID.TID 0000.0001)   94   PARCDOM = 70.,
(PID.TID 0000.0001)   95   R_NP_CDOM  = 16.,
(PID.TID 0000.0001)   96   R_FeP_CDOM = 1.e-3,
(PID.TID 0000.0001)   97   R_CP_CDOM  = 120.,
(PID.TID 0000.0001)   98   CDOMcoeff = 21.,
(PID.TID 0000.0001)   99  /
(PID.TID 0000.0001)  100  &GUD_RANDOM_PARAMS
(PID.TID 0000.0001)  101  /
(PID.TID 0000.0001)  102  &GUD_TRAIT_PARAMS
(PID.TID 0000.0001)  103  grp_names= 'Pro', 'Syn', 'PicoEuk', 'Cocco', 'Diazo', 'Tricho', 'Diatom', 'Dino', 'Zoo',
(PID.TID 0000.0001)  104  grp_nplank(:)=          0, 0, 2, 0, 0, 0,  0,  0, 2,
(PID.TID 0000.0001)  105  grp_photo(:)=           1, 1, 1, 1, 1, 1,  1,  1, 0,
(PID.TID 0000.0001)  106  grp_pred(:)=            0, 0, 0, 0, 0, 0,  0,  1, 1
(PID.TID 0000.0001)  107  grp_prey(:)=            1, 1, 1, 1, 1, 1,  1,  1, 1,
(PID.TID 0000.0001)  108  grp_hasSi(:)=           0, 0, 0, 0, 0, 0,  1,  0, 0,
(PID.TID 0000.0001)  109  grp_hasPIC(:)=          0, 0, 0, 1, 0, 0,  0,  0, 0,
(PID.TID 0000.0001)  110  grp_DIAZO(:)=           0, 0, 0, 0, 1, 1,  0,  0, 0,
(PID.TID 0000.0001)  111  grp_useNH4(:)=          1, 1, 1, 1, 1, 1,  1,  1, 0,
(PID.TID 0000.0001)  112  grp_useNO2(:)=          1, 1, 1, 1, 1, 1,  1,  1, 0,
(PID.TID 0000.0001)  113  grp_useNO3(:)=          1, 1, 1, 1, 1, 1,  1,  1, 0,
(PID.TID 0000.0001)  114  grp_combNO(:)=          1, 1, 1, 1, 1, 1,  1,  1, 0,
(PID.TID 0000.0001)  115  grp_tempMort(:)=        0, 0, 0, 0, 0, 0, 0, 0,  0,
(PID.TID 0000.0001)  116  grp_tempMort2(:)=       0, 0, 0, 0, 0, 0, 0, 0,  0,
(PID.TID 0000.0001)  117  grp_aptype(:)=          4, 2, 1, 6, 8, 7, 5, 9, 11,
(PID.TID 0000.0001)  118  grp_Xmin(:)= 8*120E-20,
(PID.TID 0000.0001)  119
(PID.TID 0000.0001)  120  grp_acclimtimescl(:)= 8*5.7870370370370370E-6,
(PID.TID 0000.0001)  121  logvolbase= -.9000,
(PID.TID 0000.0001)  122  logvolinc= .513,
(PID.TID 0000.0001)  123  logvol0ind(:)= 1, 2, 0, 5, 5, 9, 5, 7, 0,
(PID.TID 0000.0001)  124  grp_logvolind(1:2,3)= 4, 4,
(PID.TID 0000.0001)  125  grp_logvolind(1:2,9)= 8, 12,
(PID.TID 0000.0001)  126  a_biosink(:)= 8*6.951416635391563E-7, 0.,  ! .05*dm**.85
(PID.TID 0000.0001)  127  b_biosink(:)= 8*.2833333333333333, 0.,
(PID.TID 0000.0001)  128  a_vmax_DIC(1)= 0.90,
(PID.TID 0000.0001)  129  a_vmax_DIC(2)= 0.90,
(PID.TID 0000.0001)  130  a_vmax_DIC(3)= 0.90,
(PID.TID 0000.0001)  131  a_vmax_DIC(4)= 1.4,
(PID.TID 0000.0001)  132  a_vmax_DIC(5)= 0.95,
(PID.TID 0000.0001)  133  a_vmax_DIC(6)= 0.95,
(PID.TID 0000.0001)  134  a_vmax_DIC(7)= 3.9,
(PID.TID 0000.0001)  135  a_vmax_DIC(8)= 1.7,
(PID.TID 0000.0001)  136
(PID.TID 0000.0001)  137  a_vmax_DIC_denom(:)= 8*86400.,
(PID.TID 0000.0001)  138  b_vmax_DIC(:)= 0.08, 0.08, 0.08, -0.08, -0.08, -0.08,-0.08, -0.08, 0.,
(PID.TID 0000.0001)  139  a_qmin_p = 8*0.005, 0.008,
(PID.TID 0000.0001)  140  a_qmax_p = 8*0.02,  0.01,
(PID.TID 0000.0001)  141  a_qmin_n=8*7.0000000000000007E-002  , 0.1 ,
(PID.TID 0000.0001)  142  b_qmin_n=8*-0.17000000000000001     , 0.0 ,
(PID.TID 0000.0001)  143  a_qmax_n=8*0.25000000000000000      , 0.2 ,
(PID.TID 0000.0001)  144  b_qmax_n=8*-0.13000000000000000     , 0.0 ,
(PID.TID 0000.0001)  145  a_qmin_fe = 3*1.50E-6, 2*6.00E-6, 3*1.50E-6, 1E-6,
(PID.TID 0000.0001)  146  a_qmax_fe = 8*8.0E-5,  2E-5,
(PID.TID 0000.0001)  147  gud_effective_ksat= T,
(PID.TID 0000.0001)  148  gud_select_kn_allom=2,
(PID.TID 0000.0001)  149  grp_ExportFracPreyPred(1:8,9)= 8*.8,
(PID.TID 0000.0001)  150  grp_R_ChlC(9)= 0.,
(PID.TID 0000.0001)  151  a_graz(9)= 3.4722000000000000E-05,  ! prowe values
(PID.TID 0000.0001)  152  b_graz(9)= -0.16,
(PID.TID 0000.0001)  153  grp_mort(:)= 8*6e-07, 2e-7  ! 1/7days, 1/50days
(PID.TID 0000.0001)  154  grp_mort2(:)= 8*6.e-7, 8.e-7,  ! 16*.6/120/day
(PID.TID 0000.0001)  155  grp_tempcoeff2= 8*.0003,
(PID.TID 0000.0001)  156  grp_R_PC(:)= 9*0.008333333333333333,
(PID.TID 0000.0001)  157  grp_R_FeC(:)= 4*0.008333333333333333E-3, 2*0.03333333333333333E-3, 2*0.008333333333333333E-3, 1*0.001333333333333333E-3
(PID.TID 0000.0001)  158  grp_R_NC(:)= 4*0.13333333333333333, 2*0.3333333333333333, 3*0.13333333333333333,
(PID.TID 0000.0001)  159  grp_R_SiC(:)= 6*0., 0.13333333333333333, 2*0.,
(PID.TID 0000.0001)  160  grp_R_PICPOC(:)= 3*0., .8, 5*0.,
(PID.TID 0000.0001)  161  a_kg(:)= 8*1.5, 1*1.5,
(PID.TID 0000.0001)  162  b_kg(:)= 9*0,
(PID.TID 0000.0001)  163  grp_ass_eff(:,:)=81*0.5,
(PID.TID 0000.0001)  164  /
(PID.TID 0000.0001) // =======================================================
(PID.TID 0000.0001) // Parameter file "data.gud"
(PID.TID 0000.0001) // =======================================================
(PID.TID 0000.0001) >#######################
(PID.TID 0000.0001) > &GUD_FORCING_PARAMS
(PID.TID 0000.0001) >#gud_chlInitBalanced= T,
(PID.TID 0000.0001) > ironFile='input_ecco/mahowald2009_solubile_current_smooth_oce_mth-2d.bin',
(PID.TID 0000.0001) > ironPeriod= -12.,
(PID.TID 0000.0001) > gud_inscal_iron= 2000.,
(PID.TID 0000.0001) >#
(PID.TID 0000.0001) > OASIM_EdFile( 1)='input_ecco/ecco_oasim_edp01_below.bin',
(PID.TID 0000.0001) > OASIM_EdFile( 2)='input_ecco/ecco_oasim_edp02_below.bin',
(PID.TID 0000.0001) > OASIM_EdFile( 3)='input_ecco/ecco_oasim_edp03_below.bin',
(PID.TID 0000.0001) > OASIM_EdFile( 4)='input_ecco/ecco_oasim_edp04_below.bin',
(PID.TID 0000.0001) > OASIM_EdFile( 5)='input_ecco/ecco_oasim_edp05_below.bin',
(PID.TID 0000.0001) > OASIM_EdFile( 6)='input_ecco/ecco_oasim_edp06_below.bin',
(PID.TID 0000.0001) > OASIM_EdFile( 7)='input_ecco/ecco_oasim_edp07_below.bin',
(PID.TID 0000.0001) > OASIM_EdFile( 8)='input_ecco/ecco_oasim_edp08_below.bin',
(PID.TID 0000.0001) > OASIM_EdFile( 9)='input_ecco/ecco_oasim_edp09_below.bin',
(PID.TID 0000.0001) > OASIM_EdFile(10)='input_ecco/ecco_oasim_edp10_below.bin',
(PID.TID 0000.0001) > OASIM_EdFile(11)='input_ecco/ecco_oasim_edp11_below.bin',
(PID.TID 0000.0001) > OASIM_EdFile(12)='input_ecco/ecco_oasim_edp12_below.bin',
(PID.TID 0000.0001) > OASIM_EdFile(13)='input_ecco/ecco_oasim_edp13_below.bin',
(PID.TID 0000.0001) > OASIM_EsFile( 1)='input_ecco/ecco_oasim_esp01_below.bin',
(PID.TID 0000.0001) > OASIM_EsFile( 2)='input_ecco/ecco_oasim_esp02_below.bin',
(PID.TID 0000.0001) > OASIM_EsFile( 3)='input_ecco/ecco_oasim_esp03_below.bin',
(PID.TID 0000.0001) > OASIM_EsFile( 4)='input_ecco/ecco_oasim_esp04_below.bin',
(PID.TID 0000.0001) > OASIM_EsFile( 5)='input_ecco/ecco_oasim_esp05_below.bin',
(PID.TID 0000.0001) > OASIM_EsFile( 6)='input_ecco/ecco_oasim_esp06_below.bin',
(PID.TID 0000.0001) > OASIM_EsFile( 7)='input_ecco/ecco_oasim_esp07_below.bin',
(PID.TID 0000.0001) > OASIM_EsFile( 8)='input_ecco/ecco_oasim_esp08_below.bin',
(PID.TID 0000.0001) > OASIM_EsFile( 9)='input_ecco/ecco_oasim_esp09_below.bin',
(PID.TID 0000.0001) > OASIM_EsFile(10)='input_ecco/ecco_oasim_esp10_below.bin',
(PID.TID 0000.0001) > OASIM_EsFile(11)='input_ecco/ecco_oasim_esp11_below.bin',
(PID.TID 0000.0001) > OASIM_EsFile(12)='input_ecco/ecco_oasim_esp12_below.bin',
(PID.TID 0000.0001) > OASIM_EsFile(13)='input_ecco/ecco_oasim_esp13_below.bin',
(PID.TID 0000.0001) > OASIMPeriod= -12.,
(PID.TID 0000.0001) >#
(PID.TID 0000.0001) > windFile='input_ecco/tren_speed_mth-2d.bin',
(PID.TID 0000.0001) > windPeriod= -12.,
(PID.TID 0000.0001) > icefile = 'eccov3/SIarea.bin',
(PID.TID 0000.0001) > icestartdate1 = 19990101,
(PID.TID 0000.0001) > icestartdate2 = 120000,
(PID.TID 0000.0001) > iceperiod     = 86400.0,
(PID.TID 0000.0001) > /
(PID.TID 0000.0001) >########################
(PID.TID 0000.0001) > &GUD_PARAMS
(PID.TID 0000.0001) > diaz_ini_fac= 0.1,
(PID.TID 0000.0001) > idebug=271,
(PID.TID 0000.0001) > jdebug=63,
(PID.TID 0000.0001) > gud_seed= 56,
(PID.TID 0000.0001) > gud_read_phos= F,
(PID.TID 0000.0001) > tempCoeffArr= 0.8,
(PID.TID 0000.0001) > PARmin= 0.1,
(PID.TID 0000.0001) > alpfe= 1.0,
(PID.TID 0000.0001) > freefemax = .1E-3,
(PID.TID 0000.0001) > depthfesed= 7000.,
(PID.TID 0000.0001) > scav_rat= 1.73611111111111111111E-7,
(PID.TID 0000.0001) > kdoc=  3.8580246913580247E-7,  ! 1/30day
(PID.TID 0000.0001) > kdop=  3.8580246913580247E-7,  ! 1/30day
(PID.TID 0000.0001) > kdon=  3.8580246913580247E-7,  ! 1/30day
(PID.TID 0000.0001) > kdofe= 3.8580246913580247E-7,  ! 1/30day
(PID.TID 0000.0001) > kPOC=  3.8580246913580247E-7,  ! 1/30day
(PID.TID 0000.0001) > kPOP=  3.8580246913580247E-7,  ! 1/30day
(PID.TID 0000.0001) > kPON=  3.8580246913580247E-7,  ! 1/30day
(PID.TID 0000.0001) > kPOFe= 3.8580246913580247E-7,  ! 1/30day
(PID.TID 0000.0001) > kPOSi= 7.7160493827160493E-8,  ! 1/150day
(PID.TID 0000.0001) > phygrazmin= 120E-10,
(PID.TID 0000.0001) > hollexp = 2.E0,
(PID.TID 0000.0001) > hillnum = 0.01,
(PID.TID 0000.0001) > gud_atmos_pCO2= 278E-6,
(PID.TID 0000.0001) > /
(PID.TID 0000.0001) >########################
(PID.TID 0000.0001) > &GUD_RADTRANS_PARAMS
(PID.TID 0000.0001) > gud_selectSolz = 1,
(PID.TID 0000.0001) > gud_waterabsorbFile='OPTICS_COEFF/optics_water_Aug2014_bandave25.txt',
(PID.TID 0000.0001) > gud_phytoabsorbFile='OPTICS_COEFF/optics_phyto_10_bandave25_newsize5_diffsyn_zoo.txt',
(PID.TID 0000.0001) > gud_particleabsorbFile='OPTICS_COEFF/optics_detritus_8_sameas4_bandave25.txt',
(PID.TID 0000.0001) > gud_radtrans_kmax=22,
(PID.TID 0000.0001) > gud_waveband_edges=400,412.5,437.5,462.5,487.5,512.5,537.5,562.5,587.5,612.5,637.5,662.5,687.5,700,
(PID.TID 0000.0001) > gud_waveband_centers=400,425,450,475,500,525,550,575,600,625,650,675,700,
(PID.TID 0000.0001) > gud_Sdom=0.0145000,
(PID.TID 0000.0001) > gud_aCDOM_fac = 0.30,
(PID.TID 0000.0001) > gud_part_size_P = 1.e-17,
(PID.TID 0000.0001) > gud_allomSpectra= T,
(PID.TID 0000.0001) > gud_absorpSlope= -0.075,
(PID.TID 0000.0001) > gud_bbbSlope=    -1.458,
(PID.TID 0000.0001) > gud_scatSwitchSizeLog= 2.860959e-01, 2.923177e-01, 2.983251e-01, 3.140574e-01, 3.261153e-01,
(PID.TID 0000.0001) >                        3.440134e-01, 3.577670e-01, 3.618763e-01, 3.695100e-01, 3.718916e-01,
(PID.TID 0000.0001) >                        3.706202e-01, 3.640583e-01, 3.682107e-01,
(PID.TID 0000.0001) > gud_scatSlopeSmall= 4.185404e+00, 4.208007e+00, 4.261307e+00, 4.302451e+00, 4.341968e+00,
(PID.TID 0000.0001) >                     4.373109e+00, 4.392320e+00, 4.416705e+00, 4.434653e+00, 4.454953e+00,
(PID.TID 0000.0001) >                     4.479809e+00, 4.507577e+00, 4.544071e+00,
(PID.TID 0000.0001) > gud_scatSlopeLarge= 1.723153e+00, 1.718186e+00, 1.699666e+00, 1.687533e+00, 1.710736e+00,
(PID.TID 0000.0001) >                     1.732242e+00, 1.763117e+00, 1.811451e+00, 1.834619e+00, 1.863836e+00,
(PID.TID 0000.0001) >                     1.897289e+00, 1.861866e+00, 1.907367e+00,
(PID.TID 0000.0001) > /
(PID.TID 0000.0001) >
(PID.TID 0000.0001) > &GUD_CDOM_PARAMS
(PID.TID 0000.0001) >  fracCDOM = 0.02,
(PID.TID 0000.0001) >  cdomdegrd= 3.8580e-08,
(PID.TID 0000.0001) >  CDOMbleach = 3.0000e-06,
(PID.TID 0000.0001) >  PARCDOM = 70.,
(PID.TID 0000.0001) >  R_NP_CDOM  = 16.,
(PID.TID 0000.0001) >  R_FeP_CDOM = 1.e-3,
(PID.TID 0000.0001) >  R_CP_CDOM  = 120.,
(PID.TID 0000.0001) >  CDOMcoeff = 21.,
(PID.TID 0000.0001) > /
(PID.TID 0000.0001) >########################
(PID.TID 0000.0001) > &GUD_RANDOM_PARAMS
(PID.TID 0000.0001) > /
(PID.TID 0000.0001) >########################
(PID.TID 0000.0001) > &GUD_TRAIT_PARAMS
(PID.TID 0000.0001) > grp_names= 'Pro', 'Syn', 'PicoEuk', 'Cocco', 'Diazo', 'Tricho', 'Diatom', 'Dino', 'Zoo',
(PID.TID 0000.0001) >#
(PID.TID 0000.0001) >#                        P  S pE  C Dz Tr  Dm  Dn  Z
(PID.TID 0000.0001) > grp_nplank(:)=          0, 0, 2, 0, 0, 0,  0,  0, 2,
(PID.TID 0000.0001) > grp_photo(:)=           1, 1, 1, 1, 1, 1,  1,  1, 0,
(PID.TID 0000.0001) > grp_pred(:)=            0, 0, 0, 0, 0, 0,  0,  1, 1
(PID.TID 0000.0001) > grp_prey(:)=            1, 1, 1, 1, 1, 1,  1,  1, 1,
(PID.TID 0000.0001) > grp_hasSi(:)=           0, 0, 0, 0, 0, 0,  1,  0, 0,
(PID.TID 0000.0001) > grp_hasPIC(:)=          0, 0, 0, 1, 0, 0,  0,  0, 0,
(PID.TID 0000.0001) > grp_DIAZO(:)=           0, 0, 0, 0, 1, 1,  0,  0, 0,
(PID.TID 0000.0001) > grp_useNH4(:)=          1, 1, 1, 1, 1, 1,  1,  1, 0,
(PID.TID 0000.0001) > grp_useNO2(:)=          1, 1, 1, 1, 1, 1,  1,  1, 0,
(PID.TID 0000.0001) > grp_useNO3(:)=          1, 1, 1, 1, 1, 1,  1,  1, 0,
(PID.TID 0000.0001) > grp_combNO(:)=          1, 1, 1, 1, 1, 1,  1,  1, 0,
(PID.TID 0000.0001) > grp_tempMort(:)=        0, 0, 0, 0, 0, 0, 0, 0,  0,
(PID.TID 0000.0001) > grp_tempMort2(:)=       0, 0, 0, 0, 0, 0, 0, 0,  0,
(PID.TID 0000.0001) > grp_aptype(:)=          4, 2, 1, 6, 8, 7, 5, 9, 11,
(PID.TID 0000.0001) >#
(PID.TID 0000.0001) > grp_Xmin(:)= 8*120E-20,
(PID.TID 0000.0001) >
(PID.TID 0000.0001) ># grp_mqyield(:)= 8*4E-5,
(PID.TID 0000.0001) ># grp_chl2cmax(:)=  6*.2, .3, .2,
(PID.TID 0000.0001) > grp_acclimtimescl(:)= 8*5.7870370370370370E-6,
(PID.TID 0000.0001) > logvolbase= -.9000,
(PID.TID 0000.0001) > logvolinc= .513,
(PID.TID 0000.0001) > logvol0ind(:)= 1, 2, 0, 5, 5, 9, 5, 7, 0,
(PID.TID 0000.0001) > grp_logvolind(1:2,3)= 4, 4,
(PID.TID 0000.0001) > grp_logvolind(1:2,9)= 8, 12,
(PID.TID 0000.0001) > a_biosink(:)= 8*6.951416635391563E-7, 0.,  ! .05*dm**.85
(PID.TID 0000.0001) > b_biosink(:)= 8*.2833333333333333, 0.,
(PID.TID 0000.0001) > a_vmax_DIC(1)= 0.90,
(PID.TID 0000.0001) > a_vmax_DIC(2)= 0.90,
(PID.TID 0000.0001) > a_vmax_DIC(3)= 0.90,
(PID.TID 0000.0001) > a_vmax_DIC(4)= 1.4,
(PID.TID 0000.0001) > a_vmax_DIC(5)= 0.95,
(PID.TID 0000.0001) > a_vmax_DIC(6)= 0.95,
(PID.TID 0000.0001) > a_vmax_DIC(7)= 3.9,
(PID.TID 0000.0001) > a_vmax_DIC(8)= 1.7,
(PID.TID 0000.0001) >
(PID.TID 0000.0001) > a_vmax_DIC_denom(:)= 8*86400.,
(PID.TID 0000.0001) > b_vmax_DIC(:)= 0.08, 0.08, 0.08, -0.08, -0.08, -0.08,-0.08, -0.08, 0.,
(PID.TID 0000.0001) >#
(PID.TID 0000.0001) > a_qmin_p = 8*0.005, 0.008,
(PID.TID 0000.0001) > a_qmax_p = 8*0.02,  0.01,
(PID.TID 0000.0001) > a_qmin_n=8*7.0000000000000007E-002  , 0.1 ,
(PID.TID 0000.0001) > b_qmin_n=8*-0.17000000000000001     , 0.0 ,
(PID.TID 0000.0001) > a_qmax_n=8*0.25000000000000000      , 0.2 ,
(PID.TID 0000.0001) > b_qmax_n=8*-0.13000000000000000     , 0.0 ,
(PID.TID 0000.0001) > a_qmin_fe = 3*1.50E-6, 2*6.00E-6, 3*1.50E-6, 1E-6,
(PID.TID 0000.0001) > a_qmax_fe = 8*8.0E-5,  2E-5,
(PID.TID 0000.0001) >#
(PID.TID 0000.0001) > gud_effective_ksat= T,
(PID.TID 0000.0001) > gud_select_kn_allom=2,
(PID.TID 0000.0001) >#
(PID.TID 0000.0001) > grp_ExportFracPreyPred(1:8,9)= 8*.8,
(PID.TID 0000.0001) > grp_R_ChlC(9)= 0.,
(PID.TID 0000.0001) > a_graz(9)= 3.4722000000000000E-05,  ! prowe values
(PID.TID 0000.0001) > b_graz(9)= -0.16,
(PID.TID 0000.0001) >#
(PID.TID 0000.0001) > grp_mort(:)= 8*6e-07, 2e-7  ! 1/7days, 1/50days
(PID.TID 0000.0001) > grp_mort2(:)= 8*6.e-7, 8.e-7,  ! 16*.6/120/day
(PID.TID 0000.0001) > grp_tempcoeff2= 8*.0003,
(PID.TID 0000.0001) > grp_R_PC(:)= 9*0.008333333333333333,
(PID.TID 0000.0001) > grp_R_FeC(:)= 4*0.008333333333333333E-3, 2*0.03333333333333333E-3, 2*0.008333333333333333E-3, 1*0.001333333333333333E-3
(PID.TID 0000.0001) > grp_R_NC(:)= 4*0.13333333333333333, 2*0.3333333333333333, 3*0.13333333333333333,
(PID.TID 0000.0001) > grp_R_SiC(:)= 6*0., 0.13333333333333333, 2*0.,
(PID.TID 0000.0001) > grp_R_PICPOC(:)= 3*0., .8, 5*0.,
(PID.TID 0000.0001) > a_kg(:)= 8*1.5, 1*1.5,
(PID.TID 0000.0001) > b_kg(:)= 9*0,
(PID.TID 0000.0001) >#
(PID.TID 0000.0001) > grp_ass_eff(:,:)=81*0.5,
(PID.TID 0000.0001) > /
(PID.TID 0000.0001) 
(PID.TID 0000.0001)  ===================================
(PID.TID 0000.0001) GCHEM_TR_REGISTER:  Start registering GCHEM tracers
(PID.TID 0000.0001) GCHEM_TR_REGISTER:  Numb. Trac & SepForc Trac:    0    0
(PID.TID 0000.0001) 
(PID.TID 0000.0001)  OFFLINE_READPARMS: opening data.off
(PID.TID 0000.0001)  OPEN_COPY_DATA_FILE: opening file data.off
(PID.TID 0000.0001) // =======================================================
(PID.TID 0000.0001) // Removing comments from "data.off"
(PID.TID 0000.0001) // =======================================================
(PID.TID 0000.0001)    1  &OFFLINE_PARM01
(PID.TID 0000.0001)    2   UvelFile= 'ECCO_Iter3.73daily/DDuvel/DDuvel',
(PID.TID 0000.0001)    3   VvelFile= 'ECCO_Iter3.73daily/DDvvel/DDvvel',
(PID.TID 0000.0001)    4   WvelFile= 'ECCO_Iter3.73daily/DDwvel/DDwvel',
(PID.TID 0000.0001)    5   GMwxFile= 'ECCO_Iter3.73daily/DGMkwx/DGMkwx',
(PID.TID 0000.0001)    6   GMwyFile= 'ECCO_Iter3.73daily/DGMkwy/DGMkwy',
(PID.TID 0000.0001)    7   GMwzFile= 'ECCO_Iter3.73daily/DGMkwz/DGMkwz',
(PID.TID 0000.0001)    8   SaltFile= 'ECCO_Iter3.73daily/DDsalt/DDsalt',
(PID.TID 0000.0001)    9   ThetFile= 'ECCO_Iter3.73daily/DDtheta/DDtheta',
(PID.TID 0000.0001)   10   SFluxFile='ECCO_Iter3.73daily/DFOSflux/DFOSflux',
(PID.TID 0000.0001)   11   KPP_DiffSFile='ECCO_Iter3.73daily/DKPPdiffs/DKPPdiffs',
(PID.TID 0000.0001)   12   KPP_ghatKFile='ECCO_Iter3.73daily/DKPPghatK/DKPPghatK',
(PID.TID 0000.0001)   13  &end
(PID.TID 0000.0001)   14
(PID.TID 0000.0001)   15  &OFFLINE_PARM02
(PID.TID 0000.0001)   16   offlineIter0=78912,
(PID.TID 0000.0001)   17   deltaToffline=3600.,
(PID.TID 0000.0001)   18   offlineForcingPeriod=86400.,
(PID.TID 0000.0001)   19   offlineForcingCycle=31104000.,
(PID.TID 0000.0001)   20   offlineLoadPrec=32,
(PID.TID 0000.0001)   21  &end
(PID.TID 0000.0001)   22
(PID.TID 0000.0001) // =======================================================
(PID.TID 0000.0001) // Parameter file "data.off"
(PID.TID 0000.0001) // =======================================================
(PID.TID 0000.0001) > &OFFLINE_PARM01
(PID.TID 0000.0001) >  UvelFile= 'ECCO_Iter3.73daily/DDuvel/DDuvel',
(PID.TID 0000.0001) >  VvelFile= 'ECCO_Iter3.73daily/DDvvel/DDvvel',
(PID.TID 0000.0001) >  WvelFile= 'ECCO_Iter3.73daily/DDwvel/DDwvel',
(PID.TID 0000.0001) >  GMwxFile= 'ECCO_Iter3.73daily/DGMkwx/DGMkwx',
(PID.TID 0000.0001) >  GMwyFile= 'ECCO_Iter3.73daily/DGMkwy/DGMkwy',
(PID.TID 0000.0001) >  GMwzFile= 'ECCO_Iter3.73daily/DGMkwz/DGMkwz',
(PID.TID 0000.0001) ># ConvFile= 'input_off/Convtave',
(PID.TID 0000.0001) >  SaltFile= 'ECCO_Iter3.73daily/DDsalt/DDsalt',
(PID.TID 0000.0001) >  ThetFile= 'ECCO_Iter3.73daily/DDtheta/DDtheta',
(PID.TID 0000.0001) >  SFluxFile='ECCO_Iter3.73daily/DFOSflux/DFOSflux',
(PID.TID 0000.0001) ># HFluxFile=' ',
(PID.TID 0000.0001) >  KPP_DiffSFile='ECCO_Iter3.73daily/DKPPdiffs/DKPPdiffs',
(PID.TID 0000.0001) >  KPP_ghatKFile='ECCO_Iter3.73daily/DKPPghatK/DKPPghatK',
(PID.TID 0000.0001) >### offGen2DFile='ECCO_Iter3.73daily/SIarea/SIarea',
(PID.TID 0000.0001) > &end
(PID.TID 0000.0001) >
(PID.TID 0000.0001) > &OFFLINE_PARM02
(PID.TID 0000.0001) >  offlineIter0=78912,
(PID.TID 0000.0001) >  deltaToffline=3600.,
(PID.TID 0000.0001) >  offlineForcingPeriod=86400.,
(PID.TID 0000.0001) >  offlineForcingCycle=31104000.,
(PID.TID 0000.0001) >  offlineLoadPrec=32,
(PID.TID 0000.0001) > &end
(PID.TID 0000.0001) >
(PID.TID 0000.0001) 
(PID.TID 0000.0001)  OFFLINE_READPARMS: finished reading data.off
(PID.TID 0000.0001)  DIAGNOSTICS_READPARMS: opening data.diagnostics
(PID.TID 0000.0001)  OPEN_COPY_DATA_FILE: opening file data.diagnostics
(PID.TID 0000.0001) // =======================================================
(PID.TID 0000.0001) // Removing comments from "data.diagnostics"
(PID.TID 0000.0001) // =======================================================
(PID.TID 0000.0001)    1  &diagnostics_list
(PID.TID 0000.0001)    2  dumpatlast= .TRUE.,
(PID.TID 0000.0001)    3   filename( 1) = '3d',
(PID.TID 0000.0001)    4   frequency(1) = 2592000.,
(PID.TID 0000.0001)    5   frequency(1) = 3600.,
(PID.TID 0000.0001)    6   fileflags(1) = 'D       ',
(PID.TID 0000.0001)    7   fields( 1,1) = 'TRAC01  ',
(PID.TID 0000.0001)    8   fields( 2,1) = 'TRAC02  ',
(PID.TID 0000.0001)    9   fields( 3,1) = 'TRAC03  ',
(PID.TID 0000.0001)   10   fields( 4,1) = 'TRAC04  ',
(PID.TID 0000.0001)   11   fields( 5,1) = 'TRAC05  ',
(PID.TID 0000.0001)   12   fields( 6,1) = 'TRAC06  ',
(PID.TID 0000.0001)   13   fields( 7,1) = 'TRAC07  ',
(PID.TID 0000.0001)   14   fields( 8,1) = 'TRAC08  ',
(PID.TID 0000.0001)   15   fields( 9,1) = 'TRAC09  ',
(PID.TID 0000.0001)   16   fields(10,1) = 'TRAC10  ',
(PID.TID 0000.0001)   17   fields(11,1) = 'TRAC11  ',
(PID.TID 0000.0001)   18   fields(12,1) = 'TRAC12  ',
(PID.TID 0000.0001)   19   fields(13,1) = 'TRAC13  ',
(PID.TID 0000.0001)   20   fields(14,1) = 'TRAC14  ',
(PID.TID 0000.0001)   21   fields(15,1) = 'TRAC15  ',
(PID.TID 0000.0001)   22   fields(16,1) = 'TRAC16  ',
(PID.TID 0000.0001)   23   fields(17,1) = 'TRAC17  ',
(PID.TID 0000.0001)   24   fields(18,1) = 'TRAC18  ',
(PID.TID 0000.0001)   25   fields(19,1) = 'TRAC19  ',
(PID.TID 0000.0001)   26   fields(20,1) = 'TRAC20  ',
(PID.TID 0000.0001)   27   fields(21,1) = 'TRAC21  ',
(PID.TID 0000.0001)   28   fields(22,1) = 'TRAC22  ',
(PID.TID 0000.0001)   29   fields(23,1) = 'TRAC23  ',
(PID.TID 0000.0001)   30   fields(24,1) = 'TRAC24  ',
(PID.TID 0000.0001)   31   fields(25,1) = 'TRAC25  ',
(PID.TID 0000.0001)   32   fields(26,1) = 'TRAC26  ',
(PID.TID 0000.0001)   33   fields(27,1) = 'TRAC27  ',
(PID.TID 0000.0001)   34   fields(28,1) = 'TRAC28  ',
(PID.TID 0000.0001)   35   fields(29,1) = 'TRAC29  ',
(PID.TID 0000.0001)   36   fields(30,1) = 'TRAC30  ',
(PID.TID 0000.0001)   37   fields(31,1) = 'TRAC31  ',
(PID.TID 0000.0001)   38   fields(32,1) = 'TRAC32  ',
(PID.TID 0000.0001)   39   fields(33,1) = 'TRAC33  ',
(PID.TID 0000.0001)   40   fields(34,1) = 'TRAC34  ',
(PID.TID 0000.0001)   41   fields(35,1) = 'TRAC35  ',
(PID.TID 0000.0001)   42   fields(36,1) = 'TRAC36  ',
(PID.TID 0000.0001)   43   fields(37,1) = 'PAR     ',
(PID.TID 0000.0001)   44   fields(38,1) = 'PP      ',
(PID.TID 0000.0001)   45   fields(39,1) = 'Nfix    ',
(PID.TID 0000.0001)   46   fields(40,1) = 'Denit   ',
(PID.TID 0000.0001)   47   fields(41,1) = 'pH      ',
(PID.TID 0000.0001)   48   fields(42,1) = 'pCO2    ',
(PID.TID 0000.0001)   49   fields(43,1) = 'PC0001  ',
(PID.TID 0000.0001)   50   fields(44,1) = 'PChl0001',
(PID.TID 0000.0001)   51   fields(45,1) = 'VN0001  ',
(PID.TID 0000.0001)   52   fields(46,1) = 'MODE0001',
(PID.TID 0000.0001)   53   fields(47,1) = 'Fe_C0001',
(PID.TID 0000.0001)   54   fields(48,1) = 'exQc0001',
(PID.TID 0000.0001)   55   fields(49,1) = 'PCg0001 ',
(PID.TID 0000.0001)   56   fields(50,1) = 'CChl0001',
(PID.TID 0000.0001)   57   fields(51,1) = 'NChl0001',
(PID.TID 0000.0001)   58   fields(52,1) = 'NPho0001',
(PID.TID 0000.0001)   59   fields(53,1) = 'NSyn0001',
(PID.TID 0000.0001)   60   fields(54,1) = 'NPrn0001',
(PID.TID 0000.0001)   61   fields(55,1) = 'NRNA0001',
(PID.TID 0000.0001)   62   fields(56,1) = 'NDNA0001',
(PID.TID 0000.0001)   63   fields(57,1) = 'NSTO0001',
(PID.TID 0000.0001)   64   fields(58,1) = 'NEXC0001',
(PID.TID 0000.0001)   65   fields(59,1) = 'PRNA0001',
(PID.TID 0000.0001)   66   fields(60,1) = 'PDNA0001',
(PID.TID 0000.0001)   67   fields(61,1) = 'PTHY0001',
(PID.TID 0000.0001)   68   fields(62,1) = 'PCON0001',
(PID.TID 0000.0001)   69   fields(63,1) = 'PSTO0001',
(PID.TID 0000.0001)   70   fields(64,1) = 'PEXC0001',
(PID.TID 0000.0001)   71   fields(65,1) = 'FPHO0001',
(PID.TID 0000.0001)   72   fields(66,1) = 'FSTO0001',
(PID.TID 0000.0001)   73   fields(67,1) = 'FEXC0001',
(PID.TID 0000.0001)   74   fields(68,1) = 'CChl0002',
(PID.TID 0000.0001)   75   fields(69,1) = 'NChl0002',
(PID.TID 0000.0001)   76   fields(70,1) = 'NPho0002',
(PID.TID 0000.0001)   77   fields(71,1) = 'NSyn0002',
(PID.TID 0000.0001)   78   fields(72,1) = 'NPrn0002',
(PID.TID 0000.0001)   79   fields(73,1) = 'NRNA0002',
(PID.TID 0000.0001)   80   fields(74,1) = 'NDNA0002',
(PID.TID 0000.0001)   81   fields(75,1) = 'NSTO0002',
(PID.TID 0000.0001)   82   fields(76,1) = 'NEXC0002',
(PID.TID 0000.0001)   83   fields(77,1) = 'PRNA0002',
(PID.TID 0000.0001)   84   fields(78,1) = 'PDNA0002',
(PID.TID 0000.0001)   85   fields(79,1) = 'PTHY0002',
(PID.TID 0000.0001)   86   fields(80,1) = 'PCON0002',
(PID.TID 0000.0001)   87   fields(81,1) = 'PSTO0002',
(PID.TID 0000.0001)   88   fields(82,1) = 'PEXC0002',
(PID.TID 0000.0001)   89   fields(83,1) = 'FPHO0002',
(PID.TID 0000.0001)   90   fields(84,1) = 'FSTO0002',
(PID.TID 0000.0001)   91   fields(85,1) = 'FEXC0002',
(PID.TID 0000.0001)   92   fields(86,1) = 'PC0002  ',
(PID.TID 0000.0001)   93   fields(87,1) = 'PChl0002',
(PID.TID 0000.0001)   94   fields(88,1) = 'VN0002  ',
(PID.TID 0000.0001)   95   fields(89,1) = 'MODE0002',
(PID.TID 0000.0001)   96   fields(90,1) = 'Fe_C0002',
(PID.TID 0000.0001)   97   fields(91,1) = 'exQc0002',
(PID.TID 0000.0001)   98   fields(92,1) = 'PCg0002 ',
(PID.TID 0000.0001)   99
(PID.TID 0000.0001)  100   filename( 6) = 'iops',
(PID.TID 0000.0001)  101   frequency(6) = 2592000.,
(PID.TID 0000.0001)  102   fields(  1,6) = 'a001    ',
(PID.TID 0000.0001)  103   fields(  2,6) = 'a002    ',
(PID.TID 0000.0001)  104   fields(  3,6) = 'a003    ',
(PID.TID 0000.0001)  105   fields(  4,6) = 'a004    ',
(PID.TID 0000.0001)  106   fields(  5,6) = 'a005    ',
(PID.TID 0000.0001)  107   fields(  6,6) = 'a006    ',
(PID.TID 0000.0001)  108   fields(  7,6) = 'a007    ',
(PID.TID 0000.0001)  109   fields(  8,6) = 'a008    ',
(PID.TID 0000.0001)  110   fields(  9,6) = 'a009    ',
(PID.TID 0000.0001)  111   fields( 10,6) = 'a010    ',
(PID.TID 0000.0001)  112   fields( 11,6) = 'a011    ',
(PID.TID 0000.0001)  113   fields( 12,6) = 'a012    ',
(PID.TID 0000.0001)  114   fields( 13,6) = 'a013    ',
(PID.TID 0000.0001)  115   fields( 14,6) = 'bt001   ',
(PID.TID 0000.0001)  116   fields( 15,6) = 'bt002   ',
(PID.TID 0000.0001)  117   fields( 16,6) = 'bt003   ',
(PID.TID 0000.0001)  118   fields( 17,6) = 'bt004   ',
(PID.TID 0000.0001)  119   fields( 18,6) = 'bt005   ',
(PID.TID 0000.0001)  120   fields( 19,6) = 'bt006   ',
(PID.TID 0000.0001)  121   fields( 20,6) = 'bt007   ',
(PID.TID 0000.0001)  122   fields( 21,6) = 'bt008   ',
(PID.TID 0000.0001)  123   fields( 22,6) = 'bt009   ',
(PID.TID 0000.0001)  124   fields( 23,6) = 'bt010   ',
(PID.TID 0000.0001)  125   fields( 24,6) = 'bt011   ',
(PID.TID 0000.0001)  126   fields( 25,6) = 'bt012   ',
(PID.TID 0000.0001)  127   fields( 26,6) = 'bt013   ',
(PID.TID 0000.0001)  128   fields( 27,6) = 'bb001   ',
(PID.TID 0000.0001)  129   fields( 28,6) = 'bb002   ',
(PID.TID 0000.0001)  130   fields( 29,6) = 'bb003   ',
(PID.TID 0000.0001)  131   fields( 30,6) = 'bb004   ',
(PID.TID 0000.0001)  132   fields( 31,6) = 'bb005   ',
(PID.TID 0000.0001)  133   fields( 62,6) = 'bb006   ',
(PID.TID 0000.0001)  134   fields( 33,6) = 'bb007   ',
(PID.TID 0000.0001)  135   fields( 34,6) = 'bb008   ',
(PID.TID 0000.0001)  136   fields( 35,6) = 'bb009   ',
(PID.TID 0000.0001)  137   fields( 36,6) = 'bb010   ',
(PID.TID 0000.0001)  138   fields( 37,6) = 'bb011   ',
(PID.TID 0000.0001)  139   fields( 38,6) = 'bb012   ',
(PID.TID 0000.0001)  140   fields( 39,6) = 'bb013   ',
(PID.TID 0000.0001)  141   fields( 40,6) = 'aCDOM001',
(PID.TID 0000.0001)  142   fields( 41,6) = 'aCDOM002',
(PID.TID 0000.0001)  143   fields( 42,6) = 'aCDOM003',
(PID.TID 0000.0001)  144   fields( 43,6) = 'aCDOM004',
(PID.TID 0000.0001)  145   fields( 44,6) = 'aCDOM005',
(PID.TID 0000.0001)  146   fields( 45,6) = 'aCDOM006',
(PID.TID 0000.0001)  147   fields( 46,6) = 'aCDOM007',
(PID.TID 0000.0001)  148   fields( 47,6) = 'aCDOM008',
(PID.TID 0000.0001)  149   fields( 48,6) = 'aCDOM009',
(PID.TID 0000.0001)  150   fields( 49,6) = 'aCDOM010',
(PID.TID 0000.0001)  151   fields( 50,6) = 'aCDOM011',
(PID.TID 0000.0001)  152   fields( 51,6) = 'aCDOM012',
(PID.TID 0000.0001)  153   fields( 52,6) = 'aCDOM013',
(PID.TID 0000.0001)  154   filename( 7) = 'par',
(PID.TID 0000.0001)  155   frequency(7) = 2592000.,
(PID.TID 0000.0001)  156   fields(  1,7) = 'Ed001   ',
(PID.TID 0000.0001)  157   fields(  2,7) = 'Ed002   ',
(PID.TID 0000.0001)  158   fields(  3,7) = 'Ed003   ',
(PID.TID 0000.0001)  159   fields(  4,7) = 'Ed004   ',
(PID.TID 0000.0001)  160   fields(  5,7) = 'Ed005   ',
(PID.TID 0000.0001)  161   fields(  6,7) = 'Ed006   ',
(PID.TID 0000.0001)  162   fields(  7,7) = 'Ed007   ',
(PID.TID 0000.0001)  163   fields(  8,7) = 'Ed008   ',
(PID.TID 0000.0001)  164   fields(  9,7) = 'Ed009   ',
(PID.TID 0000.0001)  165   fields( 10,7) = 'Ed010   ',
(PID.TID 0000.0001)  166   fields( 11,7) = 'Ed011   ',
(PID.TID 0000.0001)  167   fields( 12,7) = 'Ed012   ',
(PID.TID 0000.0001)  168   fields( 13,7) = 'Ed013   ',
(PID.TID 0000.0001)  169   fields( 14,7) = 'Es001   ',
(PID.TID 0000.0001)  170   fields( 15,7) = 'Es002   ',
(PID.TID 0000.0001)  171   fields( 16,7) = 'Es003   ',
(PID.TID 0000.0001)  172   fields( 17,7) = 'Es004   ',
(PID.TID 0000.0001)  173   fields( 18,7) = 'Es005   ',
(PID.TID 0000.0001)  174   fields( 19,7) = 'Es006   ',
(PID.TID 0000.0001)  175   fields( 20,7) = 'Es007   ',
(PID.TID 0000.0001)  176   fields( 21,7) = 'Es008   ',
(PID.TID 0000.0001)  177   fields( 22,7) = 'Es009   ',
(PID.TID 0000.0001)  178   fields( 23,7) = 'Es010   ',
(PID.TID 0000.0001)  179   fields( 24,7) = 'Es011   ',
(PID.TID 0000.0001)  180   fields( 25,7) = 'Es012   ',
(PID.TID 0000.0001)  181   fields( 26,7) = 'Es013   ',
(PID.TID 0000.0001)  182   fields( 27,7) = 'Eu001   ',
(PID.TID 0000.0001)  183   fields( 28,7) = 'Eu002   ',
(PID.TID 0000.0001)  184   fields( 29,7) = 'Eu003   ',
(PID.TID 0000.0001)  185   fields( 30,7) = 'Eu004   ',
(PID.TID 0000.0001)  186   fields( 31,7) = 'Eu005   ',
(PID.TID 0000.0001)  187   fields( 32,7) = 'Eu006   ',
(PID.TID 0000.0001)  188   fields( 33,7) = 'Eu007   ',
(PID.TID 0000.0001)  189   fields( 34,7) = 'Eu008   ',
(PID.TID 0000.0001)  190   fields( 35,7) = 'Eu009   ',
(PID.TID 0000.0001)  191   fields( 36,7) = 'Eu010   ',
(PID.TID 0000.0001)  192   fields( 37,7) = 'Eu011   ',
(PID.TID 0000.0001)  193   fields( 38,7) = 'Eu012   ',
(PID.TID 0000.0001)  194   fields( 39,7) = 'Eu013   ',
(PID.TID 0000.0001)  195   fields( 40,7) = 'PAR001  ',
(PID.TID 0000.0001)  196   fields( 41,7) = 'PAR002  ',
(PID.TID 0000.0001)  197   fields( 42,7) = 'PAR003  ',
(PID.TID 0000.0001)  198   fields( 43,7) = 'PAR004  ',
(PID.TID 0000.0001)  199   fields( 44,7) = 'PAR005  ',
(PID.TID 0000.0001)  200   fields( 45,7) = 'PAR006  ',
(PID.TID 0000.0001)  201   fields( 46,7) = 'PAR007  ',
(PID.TID 0000.0001)  202   fields( 47,7) = 'PAR008  ',
(PID.TID 0000.0001)  203   fields( 48,7) = 'PAR009  ',
(PID.TID 0000.0001)  204   fields( 49,7) = 'PAR010  ',
(PID.TID 0000.0001)  205   fields( 50,7) = 'PAR011  ',
(PID.TID 0000.0001)  206   fields( 51,7) = 'PAR012  ',
(PID.TID 0000.0001)  207   fields( 52,7) = 'PAR013  ',
(PID.TID 0000.0001)  208   filename( 8) = '2d',
(PID.TID 0000.0001)  209   frequency(8) = 2592000.,
(PID.TID 0000.0001)  210   fields( 1,8) = 'fluxCO2 ',
(PID.TID 0000.0001)  211   fields( 2,8) = 'gDICsurf',
(PID.TID 0000.0001)  212   fields( 3,8) = 'gALKsurf',
(PID.TID 0000.0001)  213   fields( 4,8) = 'gO2surf ',
(PID.TID 0000.0001)  214  &
(PID.TID 0000.0001)  215
(PID.TID 0000.0001)  216  &DIAG_STATIS_PARMS
(PID.TID 0000.0001)  217  diagst_mnc=.FALSE.,
(PID.TID 0000.0001)  218      stat_freq(1:3)= 3*10800.,
(PID.TID 0000.0001)  219     stat_phase(1:3)= 3*0.,
(PID.TID 0000.0001)  220  stat_fields(1,1)= 'PP      '
(PID.TID 0000.0001)  221  stat_fields(1,2)= 'Nfix    '
(PID.TID 0000.0001)  222  stat_fields(1,3)= 'Denit   '
(PID.TID 0000.0001)  223     stat_fname(1)= 'statsPP',
(PID.TID 0000.0001)  224     stat_fname(2)= 'statsNfix',
(PID.TID 0000.0001)  225     stat_fname(3)= 'statsDenit',
(PID.TID 0000.0001)  226  &
(PID.TID 0000.0001) // =======================================================
(PID.TID 0000.0001) // Parameter file "data.diagnostics"
(PID.TID 0000.0001) // =======================================================
(PID.TID 0000.0001) ># Gud diagnostics
(PID.TID 0000.0001) ># ==================
(PID.TID 0000.0001) ># PAR                 Photosynthetically active radiation
(PID.TID 0000.0001) ># PP                  Primary production
(PID.TID 0000.0001) ># Nfix                Nitrogen fixation
(PID.TID 0000.0001) ># Rstar01             Rstar^PO4 of Phy01
(PID.TID 0000.0001) ># Diver1              # Phy species over absolute threshold'
(PID.TID 0000.0001) ># Diver2              # Phy species over threshold for proportion of biomass'
(PID.TID 0000.0001) ># Diver3              # Phy species constituting bulk of biomass'
[...]
 Computing Diagnostic #    971  Ed013        Counter:       4   Parms: WM P    LR      
 Computing Diagnostic #    780  Es001        Counter:       4   Parms: WM P    LR      
 Computing Diagnostic #    796  Es002        Counter:       4   Parms: WM P    LR      
 Computing Diagnostic #    812  Es003        Counter:       4   Parms: WM P    LR      
 Computing Diagnostic #    828  Es004        Counter:       4   Parms: WM P    LR      
 Computing Diagnostic #    844  Es005        Counter:       4   Parms: WM P    LR      
 Computing Diagnostic #    860  Es006        Counter:       4   Parms: WM P    LR      
 Computing Diagnostic #    876  Es007        Counter:       4   Parms: WM P    LR      
 Computing Diagnostic #    892  Es008        Counter:       4   Parms: WM P    LR      
 Computing Diagnostic #    908  Es009        Counter:       4   Parms: WM P    LR      
 Computing Diagnostic #    924  Es010        Counter:       4   Parms: WM P    LR      
 Computing Diagnostic #    940  Es011        Counter:       4   Parms: WM P    LR      
 Computing Diagnostic #    956  Es012        Counter:       4   Parms: WM P    LR      
 Computing Diagnostic #    972  Es013        Counter:       4   Parms: WM P    LR      
 Computing Diagnostic #    781  Eu001        Counter:       4   Parms: WM P    LR      
 Computing Diagnostic #    797  Eu002        Counter:       4   Parms: WM P    LR      
 Computing Diagnostic #    813  Eu003        Counter:       4   Parms: WM P    LR      
 Computing Diagnostic #    829  Eu004        Counter:       4   Parms: WM P    LR      
 Computing Diagnostic #    845  Eu005        Counter:       4   Parms: WM P    LR      
 Computing Diagnostic #    861  Eu006        Counter:       4   Parms: WM P    LR      
 Computing Diagnostic #    877  Eu007        Counter:       4   Parms: WM P    LR      
 Computing Diagnostic #    893  Eu008        Counter:       4   Parms: WM P    LR      
 Computing Diagnostic #    909  Eu009        Counter:       4   Parms: WM P    LR      
 Computing Diagnostic #    925  Eu010        Counter:       4   Parms: WM P    LR      
 Computing Diagnostic #    941  Eu011        Counter:       4   Parms: WM P    LR      
 Computing Diagnostic #    957  Eu012        Counter:       4   Parms: WM P    LR      
 Computing Diagnostic #    973  Eu013        Counter:       4   Parms: WM P    LR      
 Computing Diagnostic #    782  PAR001       Counter:       4   Parms: SM P    MR      
 Computing Diagnostic #    798  PAR002       Counter:       4   Parms: SM P    MR      
 Computing Diagnostic #    814  PAR003       Counter:       4   Parms: SM P    MR      
 Computing Diagnostic #    830  PAR004       Counter:       4   Parms: SM P    MR      
 Computing Diagnostic #    846  PAR005       Counter:       4   Parms: SM P    MR      
 Computing Diagnostic #    862  PAR006       Counter:       4   Parms: SM P    MR      
 Computing Diagnostic #    878  PAR007       Counter:       4   Parms: SM P    MR      
 Computing Diagnostic #    894  PAR008       Counter:       4   Parms: SM P    MR      
 Computing Diagnostic #    910  PAR009       Counter:       4   Parms: SM P    MR      
 Computing Diagnostic #    926  PAR010       Counter:       4   Parms: SM P    MR      
 Computing Diagnostic #    942  PAR011       Counter:       4   Parms: SM P    MR      
 Computing Diagnostic #    958  PAR012       Counter:       4   Parms: SM P    MR      
 Computing Diagnostic #    974  PAR013       Counter:       4   Parms: SM P    MR      
 Computing Diagnostic #   1037  fluxCO2      Counter:       4   Parms: SM      L1      
 Computing Diagnostic #   1038  gDICsurf     Counter:       4   Parms: SM      L1      
 Computing Diagnostic #   1039  gALKsurf     Counter:       4   Parms: SM      L1      
 Computing Diagnostic #   1040  gO2surf      Counter:       4   Parms: SM      L1      
 Compute Stats, Diag. #    724  PP        vol(   0 ): 1.326E+18  Parms: SM P    MR      
 Compute Stats, Diag. #    725  Nfix      vol(   0 ): 1.326E+18  Parms: SM P    MR      
 Compute Stats, Diag. #    726  Denit     vol(   0 ): 1.326E+18  Parms: SM P    MR      
(PID.TID 0000.0001) DIAGSTATS_CLOSE_IO: close file: statsPP.0000000000.txt , unit=     9
(PID.TID 0000.0001) DIAGSTATS_CLOSE_IO: close file: statsNfix.0000000000.txt , unit=    10
(PID.TID 0000.0001) DIAGSTATS_CLOSE_IO: close file: statsDenit.0000000000.txt , unit=    16
(PID.TID 0000.0001) %CHECKPOINT         4 ckptA
(PID.TID 0000.0001)   Seconds in section "ALL                    [THE_MODEL_MAIN]":
(PID.TID 0000.0001)           User time:   24.8335132598877
(PID.TID 0000.0001)         System time:  0.000000000000000E+000
(PID.TID 0000.0001)     Wall clock time:   28.9881610870361
(PID.TID 0000.0001)          No. starts:           1
(PID.TID 0000.0001)           No. stops:           1
(PID.TID 0000.0001)   Seconds in section "INITIALISE_FIXED       [THE_MODEL_MAIN]":
(PID.TID 0000.0001)           User time:   5.49987684190273
(PID.TID 0000.0001)         System time:  0.000000000000000E+000
(PID.TID 0000.0001)     Wall clock time:   6.63125896453857
(PID.TID 0000.0001)          No. starts:           1
(PID.TID 0000.0001)           No. stops:           1
(PID.TID 0000.0001)   Seconds in section "THE_MAIN_LOOP          [THE_MODEL_MAIN]":
(PID.TID 0000.0001)           User time:   19.3312773704529
(PID.TID 0000.0001)         System time:  0.000000000000000E+000
(PID.TID 0000.0001)     Wall clock time:   22.3371930122375
(PID.TID 0000.0001)          No. starts:           1
(PID.TID 0000.0001)           No. stops:           1
(PID.TID 0000.0001)   Seconds in section "INITIALISE_VARIA    [THE_MAIN_LOOP]":
(PID.TID 0000.0001)           User time:   4.60196352005005
(PID.TID 0000.0001)         System time:  0.000000000000000E+000
(PID.TID 0000.0001)     Wall clock time:   4.77785110473633
(PID.TID 0000.0001)          No. starts:           1
(PID.TID 0000.0001)           No. stops:           1
(PID.TID 0000.0001)   Seconds in section "MAIN LOOP           [THE_MAIN_LOOP]":
(PID.TID 0000.0001)           User time:   14.7292966842651
(PID.TID 0000.0001)         System time:  0.000000000000000E+000
(PID.TID 0000.0001)     Wall clock time:   17.5593240261078
(PID.TID 0000.0001)          No. starts:           1
(PID.TID 0000.0001)           No. stops:           1
(PID.TID 0000.0001)   Seconds in section "MAIN_DO_LOOP        [THE_MAIN_LOOP]":
(PID.TID 0000.0001)           User time:   14.7292728424072
(PID.TID 0000.0001)         System time:  0.000000000000000E+000
(PID.TID 0000.0001)     Wall clock time:   17.5592949390411
(PID.TID 0000.0001)          No. starts:           4
(PID.TID 0000.0001)           No. stops:           4
(PID.TID 0000.0001)   Seconds in section "FORWARD_STEP        [MAIN_DO_LOOP]":
(PID.TID 0000.0001)           User time:   14.7292289733887
(PID.TID 0000.0001)         System time:  0.000000000000000E+000
(PID.TID 0000.0001)     Wall clock time:   17.5592503547668
(PID.TID 0000.0001)          No. starts:           4
(PID.TID 0000.0001)           No. stops:           4
(PID.TID 0000.0001)   Seconds in section "DO_STATEVARS_DIAGS  [FORWARD_STEP]":
(PID.TID 0000.0001)           User time:  2.451324462890625E-002
(PID.TID 0000.0001)         System time:  0.000000000000000E+000
(PID.TID 0000.0001)     Wall clock time:  2.546811103820801E-002
(PID.TID 0000.0001)          No. starts:           8
(PID.TID 0000.0001)           No. stops:           8
(PID.TID 0000.0001)   Seconds in section "LOAD_FIELDS_DRIVER  [FORWARD_STEP]":
(PID.TID 0000.0001)           User time:  0.334248542785645
(PID.TID 0000.0001)         System time:  0.000000000000000E+000
(PID.TID 0000.0001)     Wall clock time:  0.346225976943970
(PID.TID 0000.0001)          No. starts:           4
(PID.TID 0000.0001)           No. stops:           4
(PID.TID 0000.0001)   Seconds in section "EXF_GETFORCING     [LOAD_FLDS_DRIVER]":
(PID.TID 0000.0001)           User time:  0.188809394836426
(PID.TID 0000.0001)         System time:  0.000000000000000E+000
(PID.TID 0000.0001)     Wall clock time:  0.188769102096558
(PID.TID 0000.0001)          No. starts:           4
(PID.TID 0000.0001)           No. stops:           4
(PID.TID 0000.0001)   Seconds in section "EXTERNAL_FLDS_LOAD [LOAD_FLDS_DRIVER]":
(PID.TID 0000.0001)           User time:  1.668930053710938E-003
(PID.TID 0000.0001)         System time:  0.000000000000000E+000
(PID.TID 0000.0001)     Wall clock time:  1.655101776123047E-003
(PID.TID 0000.0001)          No. starts:           4
(PID.TID 0000.0001)           No. stops:           4
(PID.TID 0000.0001)   Seconds in section "DO_ATMOSPHERIC_PHYS [FORWARD_STEP]":
(PID.TID 0000.0001)           User time:  3.528594970703125E-005
(PID.TID 0000.0001)         System time:  0.000000000000000E+000
(PID.TID 0000.0001)     Wall clock time:  4.577636718750000E-005
(PID.TID 0000.0001)          No. starts:           4
(PID.TID 0000.0001)           No. stops:           4
(PID.TID 0000.0001)   Seconds in section "DO_OCEANIC_PHYS     [FORWARD_STEP]":
(PID.TID 0000.0001)           User time:  7.087707519531250E-003
(PID.TID 0000.0001)         System time:  0.000000000000000E+000
(PID.TID 0000.0001)     Wall clock time:  6.947755813598633E-003
(PID.TID 0000.0001)          No. starts:           4
(PID.TID 0000.0001)           No. stops:           4
(PID.TID 0000.0001)   Seconds in section "GCHEM_CALC_TENDENCY [FORWARD_STEP]":
(PID.TID 0000.0001)           User time:  0.000000000000000E+000
(PID.TID 0000.0001)         System time:  0.000000000000000E+000
(PID.TID 0000.0001)     Wall clock time:  2.336502075195312E-005
(PID.TID 0000.0001)          No. starts:           4
(PID.TID 0000.0001)           No. stops:           4
(PID.TID 0000.0001)   Seconds in section "THERMODYNAMICS      [FORWARD_STEP]":
(PID.TID 0000.0001)           User time:   1.71902275085449
(PID.TID 0000.0001)         System time:  0.000000000000000E+000
(PID.TID 0000.0001)     Wall clock time:   1.71898579597473
(PID.TID 0000.0001)          No. starts:           4
(PID.TID 0000.0001)           No. stops:           4
(PID.TID 0000.0001)   Seconds in section "OFFLINE_FLDS_LOAD   [FORWARD_STEP]":
(PID.TID 0000.0001)           User time:  3.404617309570312E-003
(PID.TID 0000.0001)         System time:  0.000000000000000E+000
(PID.TID 0000.0001)     Wall clock time:  3.438949584960938E-003
(PID.TID 0000.0001)          No. starts:           4
(PID.TID 0000.0001)           No. stops:           4
(PID.TID 0000.0001)   Seconds in section "TRC_CORRECTION_STEP [FORWARD_STEP]":
(PID.TID 0000.0001)           User time:  5.722045898437500E-006
(PID.TID 0000.0001)         System time:  0.000000000000000E+000
(PID.TID 0000.0001)     Wall clock time:  2.336502075195312E-005
(PID.TID 0000.0001)          No. starts:           4
(PID.TID 0000.0001)           No. stops:           4
(PID.TID 0000.0001)   Seconds in section "GCHEM_FORCING_SEP  [FORWARD_STEP]":
(PID.TID 0000.0001)           User time:  0.707238197326660
(PID.TID 0000.0001)         System time:  0.000000000000000E+000
(PID.TID 0000.0001)     Wall clock time:  0.714316844940186
(PID.TID 0000.0001)          No. starts:           4
(PID.TID 0000.0001)           No. stops:           4
(PID.TID 0000.0001)   Seconds in section "GCHEM_DIAGNOSTICS [GCHEM_FORCING_SEP]":
(PID.TID 0000.0001)           User time:  1.525878906250000E-005
(PID.TID 0000.0001)         System time:  0.000000000000000E+000
(PID.TID 0000.0001)     Wall clock time:  2.312660217285156E-005
(PID.TID 0000.0001)          No. starts:           4
(PID.TID 0000.0001)           No. stops:           4
(PID.TID 0000.0001)   Seconds in section "GUD_CONS [GCHEM_FORCING_SEP]":
(PID.TID 0000.0001)           User time:  0.215682983398438
(PID.TID 0000.0001)         System time:  0.000000000000000E+000
(PID.TID 0000.0001)     Wall clock time:  0.216597318649292
(PID.TID 0000.0001)          No. starts:           8
(PID.TID 0000.0001)           No. stops:           8
(PID.TID 0000.0001)   Seconds in section "GCHEM_SURFMEAN [GCHEM_FORCING_SEP]":
(PID.TID 0000.0001)           User time:  2.002716064453125E-004
(PID.TID 0000.0001)         System time:  0.000000000000000E+000
(PID.TID 0000.0001)     Wall clock time:  2.679824829101562E-004
(PID.TID 0000.0001)          No. starts:           4
(PID.TID 0000.0001)           No. stops:           4
(PID.TID 0000.0001)   Seconds in section "GUD_FORCING [GCHEM_FORCING_SEP]":
(PID.TID 0000.0001)           User time:  0.491312980651855
(PID.TID 0000.0001)         System time:  0.000000000000000E+000
(PID.TID 0000.0001)     Wall clock time:  0.497287988662720
(PID.TID 0000.0001)          No. starts:           4
(PID.TID 0000.0001)           No. stops:           4
(PID.TID 0000.0001)   Seconds in section "GUD_LIGHT [GUD_FORCING]":
(PID.TID 0000.0001)           User time:  0.250197410583496
(PID.TID 0000.0001)         System time:  0.000000000000000E+000
(PID.TID 0000.0001)     Wall clock time:  0.254128932952881
(PID.TID 0000.0001)          No. starts:           4
(PID.TID 0000.0001)           No. stops:           4
(PID.TID 0000.0001)   Seconds in section "GUD_SURFFORCING [GUD_FORCING]":
(PID.TID 0000.0001)           User time:  1.617431640625000E-002
(PID.TID 0000.0001)         System time:  0.000000000000000E+000
(PID.TID 0000.0001)     Wall clock time:  1.618003845214844E-002
(PID.TID 0000.0001)          No. starts:           4
(PID.TID 0000.0001)           No. stops:           4
(PID.TID 0000.0001)   Seconds in section "GUD_FE_CHEM [GUD_FORCING]":
(PID.TID 0000.0001)           User time:  2.913475036621094E-003
(PID.TID 0000.0001)         System time:  0.000000000000000E+000
(PID.TID 0000.0001)     Wall clock time:  2.957344055175781E-003
(PID.TID 0000.0001)          No. starts:           8
(PID.TID 0000.0001)           No. stops:           8
(PID.TID 0000.0001)   Seconds in section "GUD_FE_DUST [GUD_FORCING]":
(PID.TID 0000.0001)           User time:  2.002716064453125E-005
(PID.TID 0000.0001)         System time:  0.000000000000000E+000
(PID.TID 0000.0001)     Wall clock time:  4.100799560546875E-005
(PID.TID 0000.0001)          No. starts:           4
(PID.TID 0000.0001)           No. stops:           4
(PID.TID 0000.0001)   Seconds in section "GUD_FE_SCAV [GUD_FORCING]":
(PID.TID 0000.0001)           User time:  1.338005065917969E-003
(PID.TID 0000.0001)         System time:  0.000000000000000E+000
(PID.TID 0000.0001)     Wall clock time:  1.347303390502930E-003
(PID.TID 0000.0001)          No. starts:           4
(PID.TID 0000.0001)           No. stops:           4
(PID.TID 0000.0001)   Seconds in section "GUD_FE_SED [GUD_FORCING]":
(PID.TID 0000.0001)           User time:  4.806518554687500E-004
(PID.TID 0000.0001)         System time:  0.000000000000000E+000
(PID.TID 0000.0001)     Wall clock time:  2.977848052978516E-004
(PID.TID 0000.0001)          No. starts:           4
(PID.TID 0000.0001)           No. stops:           4
(PID.TID 0000.0001)   Seconds in section "GUD_MODEL [GUD_FORCING]":
(PID.TID 0000.0001)           User time:  8.942604064941406E-002
(PID.TID 0000.0001)         System time:  0.000000000000000E+000
(PID.TID 0000.0001)     Wall clock time:  8.956885337829590E-002
(PID.TID 0000.0001)          No. starts:           4
(PID.TID 0000.0001)           No. stops:           4
(PID.TID 0000.0001)   Seconds in section "GUD_SINKING [GUD_FORCING]":
(PID.TID 0000.0001)           User time:  5.482578277587891E-002
(PID.TID 0000.0001)         System time:  0.000000000000000E+000
(PID.TID 0000.0001)     Wall clock time:  5.479073524475098E-002
(PID.TID 0000.0001)          No. starts:           4
(PID.TID 0000.0001)           No. stops:           4
(PID.TID 0000.0001)   Seconds in section "GUD_STEP [GUD_FORCING]":
(PID.TID 0000.0001)           User time:  1.764392852783203E-002
(PID.TID 0000.0001)         System time:  0.000000000000000E+000
(PID.TID 0000.0001)     Wall clock time:  1.757812500000000E-002
(PID.TID 0000.0001)          No. starts:           4
(PID.TID 0000.0001)           No. stops:           4
(PID.TID 0000.0001)   Seconds in section "DIAGS_FILL [GUD_FORCING]":
(PID.TID 0000.0001)           User time:  5.348205566406250E-002
(PID.TID 0000.0001)         System time:  0.000000000000000E+000
(PID.TID 0000.0001)     Wall clock time:  5.343103408813477E-002
(PID.TID 0000.0001)          No. starts:           4
(PID.TID 0000.0001)           No. stops:           4
(PID.TID 0000.0001)   Seconds in section "BLOCKING_EXCHANGES  [FORWARD_STEP]":
(PID.TID 0000.0001)           User time:  0.247767448425293
(PID.TID 0000.0001)         System time:  0.000000000000000E+000
(PID.TID 0000.0001)     Wall clock time:  0.248723983764648
(PID.TID 0000.0001)          No. starts:           4
(PID.TID 0000.0001)           No. stops:           4
(PID.TID 0000.0001)   Seconds in section "DO_STATEVARS_TAVE   [FORWARD_STEP]":
(PID.TID 0000.0001)           User time:  4.196166992187500E-005
(PID.TID 0000.0001)         System time:  0.000000000000000E+000
(PID.TID 0000.0001)     Wall clock time:  2.408027648925781E-005
(PID.TID 0000.0001)          No. starts:           4
(PID.TID 0000.0001)           No. stops:           4
(PID.TID 0000.0001)   Seconds in section "MONITOR             [FORWARD_STEP]":
(PID.TID 0000.0001)           User time:  2.889060974121094E-002
(PID.TID 0000.0001)         System time:  0.000000000000000E+000
(PID.TID 0000.0001)     Wall clock time:  2.981591224670410E-002
(PID.TID 0000.0001)          No. starts:           4
(PID.TID 0000.0001)           No. stops:           4
(PID.TID 0000.0001)   Seconds in section "DO_THE_MODEL_IO     [FORWARD_STEP]":
(PID.TID 0000.0001)           User time:   9.19621658325195
(PID.TID 0000.0001)         System time:  0.000000000000000E+000
(PID.TID 0000.0001)     Wall clock time:   10.9546689987183
(PID.TID 0000.0001)          No. starts:           4
(PID.TID 0000.0001)           No. stops:           4
(PID.TID 0000.0001)   Seconds in section "PTRACERS_RESET      [FORWARD_STEP]":
(PID.TID 0000.0001)           User time:  2.861022949218750E-005
(PID.TID 0000.0001)         System time:  0.000000000000000E+000
(PID.TID 0000.0001)     Wall clock time:  5.197525024414062E-005
(PID.TID 0000.0001)          No. starts:           4
(PID.TID 0000.0001)           No. stops:           4
(PID.TID 0000.0001)   Seconds in section "DO_WRITE_PICKUP     [FORWARD_STEP]":
(PID.TID 0000.0001)           User time:   2.46049976348877
(PID.TID 0000.0001)         System time:  0.000000000000000E+000
(PID.TID 0000.0001)     Wall clock time:   3.51005101203918
(PID.TID 0000.0001)          No. starts:           4
(PID.TID 0000.0001)           No. stops:           4
(PID.TID 0000.0001) // ======================================================
(PID.TID 0000.0001) // Tile <-> Tile communication statistics
(PID.TID 0000.0001) // ======================================================
(PID.TID 0000.0001) // o Tile number: 000001
(PID.TID 0000.0001) //         No. X exchanges =              0
(PID.TID 0000.0001) //            Max. X spins =              0
(PID.TID 0000.0001) //            Min. X spins =     1000000000
(PID.TID 0000.0001) //          Total. X spins =              0
(PID.TID 0000.0001) //            Avg. X spins =       0.00E+00
(PID.TID 0000.0001) //         No. Y exchanges =              0
(PID.TID 0000.0001) //            Max. Y spins =              0
(PID.TID 0000.0001) //            Min. Y spins =     1000000000
(PID.TID 0000.0001) //          Total. Y spins =              0
(PID.TID 0000.0001) //            Avg. Y spins =       0.00E+00
(PID.TID 0000.0001) // o Thread number: 000001
(PID.TID 0000.0001) //            No. barriers =          13892
(PID.TID 0000.0001) //      Max. barrier spins =              1
(PID.TID 0000.0001) //      Min. barrier spins =              1
(PID.TID 0000.0001) //     Total barrier spins =          13892
(PID.TID 0000.0001) //      Avg. barrier spins =       1.00E+00
PROGRAM MAIN: Execution ended Normally
